version 3
run Default-0-20230912-10:56:41-36863
attr configname Default
attr datetime 20230912-10:56:41
attr datetimef 20230912-105641
attr experiment Default
attr inifile omnetpp.ini
attr iterationvars ""
attr iterationvarsd ""
attr iterationvarsf ""
attr measurement ""
attr network RSUExampleScenario
attr processid 36863
attr repetition 0
attr replication #0
attr resultdir results
attr runnumber 0
attr seedset 0
config image-path ../../images
config cmdenv-express-mode true
config cmdenv-autoflush true
config cmdenv-status-frequency 1s
config **.cmdenv-log-level info
config image-path ../../images
config network RSUExampleScenario
config debug-on-errors true
config print-undisposed true
config sim-time-limit 200s
config *.playgroundSizeX 2200m
config *.playgroundSizeY 1200m
config *.playgroundSizeZ 50m
config *.annotations.draw false
config *.obstacles.debug false
config *.world.useTorus false
config *.world.use2D false
config *.manager.updateInterval 1s
config *.manager.host "\"localhost\""
config *.manager.port 9999
config *.manager.autoShutdown true
config *.rsu[0].mobility.x 280
config *.rsu[0].mobility.y 220
config *.rsu[0].mobility.z 3
config *.rsu[1].mobility.x 1700
config *.rsu[1].mobility.y 800
config *.rsu[1].mobility.z 3
config *.rsu[2].mobility.x 900
config *.rsu[2].mobility.y 800
config *.rsu[2].mobility.z 3
config *.rsu[*].applType "\"TraCIDemoRSU11p\""
config *.rsu[*].appl.headerLength "80 bit"
config *.rsu[*].appl.sendBeacons false
config *.rsu[*].appl.dataOnSch false
config *.rsu[*].appl.beaconInterval 1s
config *.rsu[*].appl.beaconUserPriority 7
config *.rsu[*].appl.dataUserPriority 5
config *.rsu[*].nic.phy80211p.antennaOffsetZ "0 m"
config *.connectionManager.sendDirect true
config *.connectionManager.maxInterfDist 850m
config *.connectionManager.drawMaxIntfDist false
config *.**.nic.mac1609_4.useServiceChannel false
config *.**.nic.mac1609_4.txPower 20mW
config *.**.nic.mac1609_4.bitrate 6Mbps
config *.**.nic.phy80211p.minPowerLevel -110dBm
config *.**.nic.phy80211p.useNoiseFloor true
config *.**.nic.phy80211p.noiseFloor -98dBm
config *.**.nic.phy80211p.decider "xmldoc(\"config.xml\")"
config *.**.nic.phy80211p.analogueModels "xmldoc(\"config.xml\")"
config *.**.nic.phy80211p.usePropagationDelay true
config *.**.nic.phy80211p.antenna "xmldoc(\"antenna.xml\", \"/root/Antenna[@id='monopole']\")"
config *.node[*].nic.phy80211p.antennaOffsetY "0 m"
config *.node[*].nic.phy80211p.antennaOffsetZ "1.895 m"
config *.node[*].applType "\"TraCIDemo11p\""
config *.node[*].appl.headerLength "80 bit"
config *.node[*].appl.sendBeacons false
config *.node[*].appl.dataOnSch false
config *.node[*].appl.beaconInterval 1s
config *.node[*].veinsmobility.x 0
config *.node[*].veinsmobility.y 0
config *.node[*].veinsmobility.z 0
config *.node[*].veinsmobility.setHostSpeed false
config *.node[8].veinsmobility.accidentCount 1
config *.node[8].veinsmobility.accidentStart 100s
config *.node[8].veinsmobility.accidentDuration 20s
config *.manager.configFile "\"sumocfg/Monza.sumo.cfg\""
config *.manager.launchConfig "xmldoc(\"Monza.launchd.xml\")"

vector 0 RSUExampleScenario.node[0].veinsmobility posx ETV
vector 1 RSUExampleScenario.node[0].veinsmobility posy ETV
vector 2 RSUExampleScenario.node[1].veinsmobility posx ETV
vector 3 RSUExampleScenario.node[1].veinsmobility posy ETV
vector 4 RSUExampleScenario.node[2].veinsmobility posx ETV
vector 5 RSUExampleScenario.node[2].veinsmobility posy ETV
vector 6 RSUExampleScenario.node[3].veinsmobility posx ETV
vector 7 RSUExampleScenario.node[3].veinsmobility posy ETV
vector 8 RSUExampleScenario.node[4].veinsmobility posx ETV
vector 9 RSUExampleScenario.node[4].veinsmobility posy ETV
vector 10 RSUExampleScenario.node[5].veinsmobility posx ETV
vector 11 RSUExampleScenario.node[5].veinsmobility posy ETV
vector 12 RSUExampleScenario.node[6].veinsmobility posx ETV
vector 13 RSUExampleScenario.node[6].veinsmobility posy ETV
vector 14 RSUExampleScenario.node[7].veinsmobility posx ETV
vector 15 RSUExampleScenario.node[7].veinsmobility posy ETV
vector 16 RSUExampleScenario.node[8].veinsmobility posx ETV
vector 17 RSUExampleScenario.node[8].veinsmobility posy ETV
vector 18 RSUExampleScenario.node[9].veinsmobility posx ETV
vector 19 RSUExampleScenario.node[9].veinsmobility posy ETV
vector 20 RSUExampleScenario.node[0].veinsmobility speed ETV
vector 21 RSUExampleScenario.node[1].veinsmobility speed ETV
vector 22 RSUExampleScenario.node[2].veinsmobility speed ETV
vector 23 RSUExampleScenario.node[3].veinsmobility speed ETV
vector 24 RSUExampleScenario.node[4].veinsmobility speed ETV
vector 25 RSUExampleScenario.node[5].veinsmobility speed ETV
vector 26 RSUExampleScenario.node[6].veinsmobility speed ETV
vector 27 RSUExampleScenario.node[7].veinsmobility speed ETV
vector 28 RSUExampleScenario.node[8].veinsmobility speed ETV
vector 29 RSUExampleScenario.node[9].veinsmobility speed ETV
vector 30 RSUExampleScenario.node[0].veinsmobility acceleration ETV
vector 31 RSUExampleScenario.node[0].veinsmobility co2emission ETV
vector 32 RSUExampleScenario.node[1].veinsmobility acceleration ETV
vector 33 RSUExampleScenario.node[1].veinsmobility co2emission ETV
vector 34 RSUExampleScenario.node[2].veinsmobility acceleration ETV
vector 35 RSUExampleScenario.node[2].veinsmobility co2emission ETV
vector 36 RSUExampleScenario.node[3].veinsmobility acceleration ETV
vector 37 RSUExampleScenario.node[3].veinsmobility co2emission ETV
vector 38 RSUExampleScenario.node[4].veinsmobility acceleration ETV
vector 39 RSUExampleScenario.node[4].veinsmobility co2emission ETV
vector 40 RSUExampleScenario.node[5].veinsmobility acceleration ETV
vector 41 RSUExampleScenario.node[5].veinsmobility co2emission ETV
vector 42 RSUExampleScenario.node[6].veinsmobility acceleration ETV
vector 43 RSUExampleScenario.node[6].veinsmobility co2emission ETV
vector 44 RSUExampleScenario.node[7].veinsmobility acceleration ETV
vector 45 RSUExampleScenario.node[7].veinsmobility co2emission ETV
vector 46 RSUExampleScenario.node[8].veinsmobility acceleration ETV
vector 47 RSUExampleScenario.node[8].veinsmobility co2emission ETV
vector 48 RSUExampleScenario.node[9].veinsmobility acceleration ETV
vector 49 RSUExampleScenario.node[9].veinsmobility co2emission ETV
0	2	1	1383.2545190259
0	3	2	1361.748660587
0	4	3	1326.113412533
0	5	4	1275.8048185232
0	6	5	1212.3377101582
0	7	6	1134.5430853962
0	8	7	1049.7959759143
0	9	8	964.77944377931
0	10	9	880.00231241474
0	11	10	810.74542798455
0	12	11	768.23345098528
0	13	12	740.17920240481
0	14	13	732.60857875651
0	15	14	732.76238984301
0	16	15	717.96914220483
0	17	16	696.71716660308
0	18	17	662.32514442241
0	19	18	617.52376182577
0	20	19	563.29698112471
0	21	20	494.2372467829
0	22	21	415.59069986655
0	23	22	340.39330927378
0	24	23	276.31626789189
0	25	24	239.99719496264
0	26	25	220.37566569166
0	27	26	210.82065813091
0	28	27	201.24765412483
0	29	28	191.70114251003
0	30	29	182.75575895388
0	31	30	178.10913723638
0	32	31	160.78389778739
0	33	32	128.61952036083
0	34	33	113.51023679696
0	35	34	100.5161333614
0	36	35	83.386097844259
0	37	36	65.415347829356
0	38	37	47.440928120458
0	39	38	30.199816870265
0	40	39	52.433777406965
0	41	40	107.55725027476
0	42	41	171.96349786644
0	43	42	237.02372251417
0	44	43	300.4024607772
0	45	44	348.54364483684
0	46	45	376.07552428775
0	47	46	405.91591318943
0	48	47	439.54033735689
0	49	48	473.15324850335
0	50	49	506.81285015652
0	51	50	552.55086519459
0	52	51	606.7567714091
0	53	52	660.9685543223
0	54	53	712.09942596466
0	55	54	742.45690711468
0	56	55	757.712611695
0	57	56	787.76801013557
0	58	57	829.11159524954
0	59	58	880.33733741747
0	60	59	920.40089466465
0	61	60	974.0520477212
0	62	61	1044.8359908596
0	63	62	1127.722355358
0	64	63	1212.6031726772
0	65	64	1297.5468776496
0	66	65	1382.5585782525
0	67	66	1467.5096329976
0	68	67	1552.4860727
0	69	68	1637.2727422363
0	70	69	1722.0830739546
0	71	70	1806.9949423797
0	72	71	1891.857933224
0	73	72	1976.3571533331
0	74	73	2039.1055055653
0	75	74	2084.7007345037
0	76	75	2108.3246831997
0	77	76	2109.7400107292
0	78	77	2086.849473487
0	79	78	2035.4633414401
0	80	79	1973.3440150242
0	81	80	1902.038424798
0	82	81	1823.5112192554
0	83	82	1739.116822052
0	84	83	1654.0967146073
0	85	84	1569.2374373024
0	86	85	1484.2738554604
0	87	86	1399.3659059777
0	88	87	1314.3539186868
0	89	88	1229.4875079562
0	90	89	1144.6986449092
0	91	90	1059.6990210528
0	92	91	974.71350304946
0	93	92	889.76856076979
0	94	93	817.89145393309
0	95	94	773.03093104427
0	96	95	742.50137284367
0	97	96	732.55
0	98	97	733.00758281259
0	99	98	720.10941461639
0	100	99	699.32170313538
0	101	100	666.52571121282
0	103	101	622.68397843205
0	104	102	571.14600848086
0	105	103	504.99554727183
0	154	104	427.39128332006
0	197	105	351.80607312927
1	2	1	961.46
1	3	2	961.46
1	4	3	961.46
1	5	4	961.46
1	6	5	961.46
1	7	6	961.46
1	8	7	961.46
1	9	8	961.46
1	10	9	961.46
1	11	10	961.46
1	12	11	961.46
1	13	12	960.71097762421
1	14	13	946.88510562149
1	15	14	927.74009289322
1	16	15	920.6613045334
1	17	16	927.48403128143
1	18	17	938.71998350915
1	19	18	953.3566975688
1	20	19	959.37676346203
1	21	20	961.46
1	22	21	960.88932885832
1	23	22	949.40464732628
1	24	23	910.66503966569
1	25	24	844.34052776295
1	26	25	770.34286224307
1	27	26	692.27133637773
1	28	27	614.05276615496
1	29	28	536.05065849358
1	30	29	462.97021642854
1	31	30	424.24983059154
1	32	31	407.45129926246
1	33	32	400.14417945976
1	34	33	376.89209391137
1	35	34	334.80667005984
1	36	35	279.32575066395
1	37	36	221.12191728235
1	38	37	162.90619846149
1	39	38	106.03579532602
1	40	39	65.101675575685
1	41	40	55.156373777624
1	42	41	46.951144991499
1	43	42	38.662600819576
1	44	43	30.66025937739
1	45	44	39.538468349064
1	46	45	85.997324756543
1	47	46	147.30054651942
1	48	47	216.37757960293
1	49	48	285.43096067301
1	50	49	354.5802613538
1	51	50	419.84609217172
1	52	51	485.2030534698
1	53	52	550.56710040109
1	54	53	612.2164414497
1	55	54	648.81177396844
1	56	55	661.62403383791
1	57	56	660.97961944582
1	58	57	652.97925029048
1	59	58	659.90718224737
1	60	59	693.18120257647
1	61	60	712.70119327845
1	62	61	712.66707698855
1	63	62	712.6271276001
1	64	63	712.58621692965
1	65	64	712.54527594874
1	66	65	712.50430219545
1	67	66	712.46335767211
1	68	67	712.42240091379
1	69	68	712.38153562048
1	70	69	712.34065892253
1	71	70	712.29973328613
1	72	71	712.25883120764
1	73	72	712.21810445858
1	74	73	712.28828618297
1	75	74	722.70975468822
1	76	75	754.67124110387
1	77	76	804.89943862195
1	78	77	859.74484242086
1	79	78	904.20651960472
1	80	79	935.60928511278
1	81	80	954.6358447234
1	82	81	958.74437092429
1	83	82	959.42130574682
1	84	83	960.10325944578
1	85	84	960.78392311217
1	86	85	961.46
1	87	86	961.46
1	88	87	961.46
1	89	88	961.46
1	90	89	961.46
1	91	90	961.46
1	92	91	961.46
1	93	92	961.46
1	94	93	961.46
1	95	94	961.46
1	96	95	961.1794884624
1	97	96	948.85112474781
1	98	97	930.07157691968
1	99	98	920.14664943329
1	100	99	926.6331232453
1	101	100	937.34764874097
1	103	101	951.6708430131
1	104	102	958.51653686483
1	105	103	961.46
1	154	104	961.122434278
1	197	105	952.87681904305
2	2	1	1387.4790487206
2	3	2	1365.6042805562
2	4	3	1330.4485966657
2	5	4	1282.0161058825
2	6	5	1220.6002559313
2	7	6	1145.5622917383
2	8	7	1062.5897363153
2	9	8	979.44538228203
2	10	9	896.36818161129
2	11	10	823.41137600955
2	12	11	776.92076335736
2	13	12	745.03235759911
2	14	13	732.10970017283
2	15	14	729.5646081529
2	16	15	728.23482603494
2	17	16	714.91249237285
2	18	17	691.57082655387
2	19	18	654.93558229211
2	20	19	609.39350778403
2	21	20	554.54011151715
2	22	21	486.07232281287
2	23	22	412.37495090423
2	24	23	339.35096647461
2	25	24	276.63730506622
2	26	25	240.72508661305
2	27	26	220.8531448529
2	28	27	211.5117177636
2	29	28	202.16350231078
2	30	29	192.93278625316
2	31	30	185.96752677943
2	32	31	181.08701306977
2	33	32	176.81505448208
2	34	33	156.45649888962
2	35	34	125.03307510395
2	36	35	112.31329921632
2	37	36	99.048616486753
2	38	37	82.106494476975
2	39	38	64.447326115918
2	40	39	46.820322652864
2	41	40	30.175177706635
2	42	41	52.258686210852
2	43	42	106.08493030399
2	44	43	169.24094929474
2	45	44	232.69649332867
2	46	45	295.66125638574
2	47	46	345.0496828325
2	48	47	373.18330437251
2	49	48	402.45462516858
2	50	49	435.40170462443
2	51	50	468.30657984925
2	52	51	501.2623932934
2	53	52	542.26914402714
2	54	53	595.31832581874
2	55	54	648.39219193225
2	56	55	701.42001840501
2	57	56	741.32189220201
2	58	57	780.9228653131
2	59	58	833.5288251998
2	60	59	888.21442660497
2	61	60	925.52948290382
2	62	61	980.56397023102
2	63	62	1052.1238680549
2	64	63	1134.4270236097
2	65	64	1216.814073326
2	66	65	1299.5307090165
2	67	66	1382.6352721985
2	68	67	1465.6362683399
2	69	68	1548.8419944791
2	70	69	1632.0852133858
2	71	70	1715.2929954437
2	72	71	1798.3577347511
2	73	72	1881.462753276
2	74	73	1955.9515122172
2	75	74	2023.3307697765
2	76	75	2073.5068652496
2	77	76	2102.4275165473
2	78	77	2110.7523570249
2	79	78	2099.6361463645
2	80	79	2057.2417194481
2	81	80	1999.211459865
2	82	81	1932.5814293565
2	83	82	1858.2701086034
2	84	83	1778.5020982198
2	85	84	1695.2894136167
2	86	85	1612.1381076104
2	87	86	1528.9306531157
2	88	87	1445.7530433921
2	89	88	1362.6972274611
2	90	89	1279.615487449
2	91	90	1196.3066921473
2	92	91	1113.1321250309
2	93	92	1030.0179208352
2	94	93	946.8172133876
2	95	94	873.15270932133
2	96	95	815.75314078885
2	97	96	773.72886174668
2	98	97	743.38268015191
2	99	98	732.59623974661
2	100	99	733.08342479804
2	101	100	721.76281119648
2	103	101	702.20805462227
2	104	102	671.53240179735
2	105	103	628.91372062843
2	154	104	579.54321391704
2	197	105	516.22446001129
3	2	1	964.66
3	3	2	964.66
3	4	3	964.66
3	5	4	964.66
3	6	5	964.66
3	7	6	964.66
3	8	7	964.66
3	9	8	964.66
3	10	9	964.66
3	11	10	964.66
3	12	11	964.66
3	13	12	964.66
3	14	13	958.82895644659
3	15	14	941.71126080572
3	16	15	925.89071400921
3	17	16	924.85354626985
3	18	17	932.52878759625
3	19	18	944.49760560333
3	20	19	954.32474153985
3	21	20	960.3364864701
3	22	21	961.46
3	23	22	960.82580585419
3	24	23	949.08752929666
3	25	24	911.02576688191
3	26	25	846.30557432599
3	27	26	774.24422249315
3	28	27	697.91780809899
3	29	28	621.53592772059
3	30	29	546.11410488407
3	31	30	489.20274906307
3	32	31	449.35485844397
3	33	32	420.60811683719
3	34	33	406.44660504047
3	35	34	399.33219103554
3	36	35	373.01544127003
3	37	36	330.05366266807
3	38	37	275.18135929898
3	39	38	217.98667949473
3	40	39	160.89617566324
3	41	40	105.27318316391
3	42	41	65.140738174931
3	43	42	55.343944435104
3	44	43	47.297992304414
3	45	44	39.213881274574
3	46	45	31.19229477224
3	47	46	36.559881062187
3	48	47	80.05563279553
3	49	48	140.18977769444
3	50	49	207.87529362305
3	51	50	275.47410641443
3	52	51	343.17756519302
3	53	52	407.4492502158
3	54	53	471.41152966794
3	55	54	535.40357141692
3	56	55	594.33403955427
3	57	56	642.4381850264
3	58	57	659.05835220388
3	59	58	649.3322380616
3	60	59	661.08873188935
3	61	60	697.88141130336
3	62	61	709.49805456341
3	63	62	709.46356395461
3	64	63	709.42389528504
3	65	64	712.58418736897
3	66	65	712.54431978604
3	67	66	712.50426523067
3	68	67	712.46426059231
3	69	68	712.42415727864
3	70	69	712.38403589428
3	71	70	712.3439315897
3	72	71	712.30389622855
3	73	72	712.26384145371
3	74	73	709.02793496902
3	75	74	709.03253846349
3	76	75	716.26228841655
3	77	76	742.08224650096
3	78	77	786.24158961956
3	79	78	840.28429137814
3	80	79	890.11233147605
3	81	80	924.9934160427
3	82	81	949.29864328032
3	83	82	957.35934902541
3	84	83	959.10539301071
3	85	84	959.77284921338
3	86	85	960.43981309297
3	87	86	961.10722734449
3	88	87	961.46
3	89	88	961.46
3	90	89	961.46
3	91	90	961.46
3	92	91	961.46
3	93	92	961.46
3	94	93	961.46
3	95	94	961.46
3	96	95	961.46
3	97	96	961.46
3	98	97	961.28551039421
3	99	98	949.62360063298
3	100	99	931.44381582658
3	101	100	919.74906967761
3	103	101	925.6901456196
3	104	102	935.71195148737
3	105	103	949.6355720034
3	154	104	957.59623182184
3	197	105	961.46
4	2	1	1394.9207754156
4	3	2	1380.9202951306
4	4	3	1354.9520386764
4	5	4	1315.1189515031
4	6	5	1262.5878481791
4	7	6	1196.9169678982
4	8	7	1119.9346152339
4	9	8	1040.2563703044
4	10	9	959.23891599924
4	11	10	886.15133570644
4	12	11	831.39864930097
4	13	12	788.96825880856
4	14	13	758.2625040301
4	15	14	735.77889907351
4	16	15	732.74565702566
4	17	16	731.52169145499
4	18	17	715.0798870046
4	19	18	692.36899384617
4	20	19	656.93210988646
4	21	20	613.2888125389
4	22	21	560.1985157856
4	23	22	494.66415874927
4	24	23	420.0607093767
4	25	24	347.39857159939
4	26	25	283.26479921659
4	27	26	244.58466783054
4	28	27	223.12352758222
4	29	28	213.20287614523
4	30	29	204.01269899594
4	31	30	195.65736311638
4	32	31	189.0559955673
4	33	32	183.64531172794
4	34	33	179.52136243893
4	35	34	173.7978099176
4	36	35	147.4500135432
4	37	36	119.72905237551
4	38	37	109.35267931889
4	39	38	95.548685713797
4	40	39	78.537297734382
4	41	40	61.245603969361
4	42	41	43.956911858849
4	43	42	29.925760623872
4	44	43	58.754934956413
4	45	44	112.27294050747
4	46	45	174.50354822635
4	47	46	236.88782623227
4	48	47	298.8081821268
4	49	48	345.9109814584
4	50	49	373.74984627066
4	51	50	403.28598584039
4	52	51	435.72560091522
4	53	52	468.05665843555
4	54	53	500.41275450686
4	55	54	540.27604795305
4	56	55	592.29533330916
4	57	56	644.52041663533
4	58	57	696.5078221292
4	59	58	734.321326742
4	60	59	750.98731710089
4	61	60	774.11595123247
4	62	61	809.75118096112
4	63	62	859.57723380666
4	64	63	904.65499099607
4	65	64	944.15440268156
4	66	65	1006.920473297
4	67	66	1083.0198344433
4	68	67	1164.0460592492
4	69	68	1245.5412719281
4	70	69	1327.201977326
4	71	70	1408.985250132
4	72	71	1490.5688756727
4	73	72	1572.1484948943
4	74	73	1653.8989703537
4	75	74	1735.6049902364
4	76	75	1817.3551228067
4	77	76	1898.8662918695
4	78	77	1971.9791471996
4	79	78	2034.2367482052
4	80	79	2079.2890424561
4	81	80	2105.3144523691
4	82	81	2110.38319059
4	83	82	2095.4579478633
4	84	83	2052.2312265767
4	85	84	1993.9270463305
4	86	85	1927.6120592369
4	87	86	1854.0335964159
4	88	87	1775.1279532493
4	89	88	1693.4035649365
4	90	89	1611.6758755697
4	91	90	1529.8856974433
4	92	91	1448.3138828998
4	93	92	1366.6709658081
4	94	93	1284.9447300348
4	95	94	1203.2512178926
4	96	95	1121.5409504954
4	97	96	1039.783948163
4	98	97	958.10904813472
4	99	98	882.00444019611
4	100	99	821.62768123671
4	101	100	778.20756971832
4	103	101	746.66206017623
4	104	102	732.80365267265
4	105	103	732.97482974062
4	154	104	725.52493005202
4	197	105	707.25032394707
5	2	1	961.46
5	3	2	961.46
5	4	3	961.46
5	5	4	961.46
5	6	5	961.46
5	7	6	961.46
5	8	7	961.46
5	9	8	961.46
5	10	9	961.46
5	11	10	961.46
5	12	11	961.46
5	13	12	961.46
5	14	13	961.46
5	15	14	958.52705197449
5	16	15	942.42752338776
5	17	16	924.39466980504
5	18	17	921.42337099847
5	19	18	928.90458925612
5	20	19	940.48190021443
5	21	20	953.89782943949
5	22	21	959.71634468328
5	23	22	961.46
5	24	23	960.97762817394
5	25	24	951.53589914429
5	26	25	918.13085145294
5	27	26	856.72506025077
5	28	27	786.26864633886
5	29	28	711.73583121345
5	30	29	636.64524144091
5	31	30	568.37592641553
5	32	31	514.43783855134
5	33	32	470.22852310833
5	34	33	436.58065835715
5	35	34	415.05984504164
5	36	35	404.40749351906
5	37	36	396.07334165714
5	38	37	363.42655783036
5	39	38	318.71805411599
5	40	39	263.621411476
5	41	40	207.61691183351
5	42	41	151.62213397774
5	43	42	97.553420285212
5	44	43	63.691434229443
5	45	44	54.55560415215
5	46	45	46.627547590459
5	47	46	38.679913737592
5	48	47	30.791382645795
5	49	48	37.251298852309
5	50	49	81.219519892794
5	51	50	141.89770073111
5	52	51	208.54069668491
5	53	52	274.96067517538
5	54	53	341.43209213228
5	55	54	405.04614118074
5	56	55	467.76665739754
5	57	56	530.73530764443
5	58	57	593.41738578192
5	59	58	639.00478790676
5	60	59	657.16199753961
5	61	60	659.6005499147
5	62	61	653.42178828869
5	63	62	648.76256370543
5	64	63	674.34363389722
5	65	64	710.15450738175
5	66	65	709.48535119373
5	67	66	709.44867264366
5	68	67	712.60962038084
5	69	68	712.5703414967
5	70	69	712.53098284874
5	71	70	712.49156512601
5	72	71	712.45224362883
5	73	72	712.4129240626
5	74	73	712.37352214747
5	75	74	712.33414165893
5	76	75	712.29473990906
5	77	76	712.25545333429
5	78	77	709.0202099316
5	79	78	712.27127445215
5	80	79	719.58091040265
5	81	80	747.82166783639
5	82	81	793.04543888294
5	83	82	846.64222250303
5	84	83	894.59178302619
5	85	84	928.02350860909
5	86	85	950.96751404303
5	87	86	957.62296801219
5	88	87	959.13245732188
5	89	88	959.78797577017
5	90	89	960.4435206965
5	91	90	961.09956685062
5	92	91	961.46
5	93	92	961.46
5	94	93	961.46
5	95	94	961.46
5	96	95	961.46
5	97	96	961.46
5	98	97	961.46
5	99	98	961.46
5	100	99	961.46
5	101	100	961.46
5	103	101	961.46
5	104	102	952.64510244756
5	105	103	934.97516621253
5	154	104	919.71688917102
5	197	105	924.03322535098
6	2	1	1399.0253755858
6	3	2	1384.8194764961
6	4	3	1359.439614138
6	5	4	1320.802783303
6	6	5	1269.3175137825
6	7	6	1205.1300313327
6	8	7	1130.7907849272
6	9	8	1055.7217299723
6	10	9	980.91713909578
6	11	10	907.26971665339
6	12	11	847.0310811249
6	13	12	800.28687035136
6	14	13	766.34628315997
6	15	14	742.34823804682
6	16	15	731.44254514979
6	17	16	729.57035367187
6	18	17	729.25893089946
6	19	18	717.36956764469
6	20	19	698.18941899591
6	21	20	668.0975896718
6	22	21	628.58132914049
6	23	22	583.2301989528
6	24	23	523.37483277182
6	25	24	451.05028184089
6	26	25	383.588760814
6	27	26	319.12479047626
6	28	27	267.54957424049
6	29	28	238.1506908874
6	30	29	222.26845905981
6	31	30	214.79810417876
6	32	31	207.14121100557
6	33	32	199.98636259267
6	34	33	193.69017530911
6	35	34	188.24550766655
6	36	35	183.59072486406
6	37	36	179.90277339669
6	38	37	175.44519319693
6	39	38	155.0500263895
6	40	39	127.25130699547
6	41	40	119.21686289374
6	42	41	112.67174108544
6	43	42	102.36362785342
6	44	43	87.951218614845
6	45	44	72.025814492344
6	46	45	56.134133416278
6	47	46	40.295798408872
6	48	47	30.729570016952
6	49	48	60.914809167473
6	50	49	112.24627985101
6	51	50	169.45853933429
6	52	51	226.56386985835
6	53	52	283.55682098931
6	54	53	332.41410492933
6	55	54	363.31181610523
6	56	55	388.16491555486
6	57	56	417.57337008271
6	58	57	447.23313194491
6	59	58	476.9154121316
6	60	59	506.59697752914
6	61	60	546.03241648663
6	62	61	593.87505418946
6	63	62	641.69120788693
6	64	63	687.19824878726
6	65	64	725.20835621637
6	66	65	758.84376242621
6	67	66	803.69321679333
6	68	67	855.68253558562
6	69	68	897.1818958256
6	70	69	932.81012425476
6	71	70	986.42770691007
6	72	71	1054.5894830384
6	73	72	1129.5094078039
6	74	73	1204.6470309624
6	75	74	1279.6219696425
6	76	75	1354.5614672694
6	77	76	1429.5905959888
6	78	77	1504.6520192933
6	79	78	1579.4770512299
6	80	79	1654.3545802079
6	81	80	1729.2859962089
6	82	81	1804.0852054505
6	83	82	1879.003648588
6	84	83	1953.7420576555
6	85	84	2018.207605671
6	86	85	2065.1242231519
6	87	86	2096.100008991
6	88	87	2109.7955747759
6	89	88	2108.5986221861
6	90	89	2084.4787947781
6	91	90	2039.1402234613
6	92	91	1985.3884633225
6	93	92	1923.6613690902
6	94	93	1855.8746753847
6	95	94	1783.6098146433
6	96	95	1708.7881149466
6	97	96	1633.9676337977
6	98	97	1559.109186292
6	99	98	1484.2016943654
6	100	99	1409.3262507329
6	101	100	1334.3777292134
6	103	101	1259.4572029033
6	104	102	1184.5453560868
6	105	103	1109.7176284526
6	154	104	1034.7964634881
6	197	105	959.85308003245
7	2	1	964.66
7	3	2	964.66
7	4	3	964.66
7	5	4	964.66
7	6	5	964.66
7	7	6	964.66
7	8	7	964.66
7	9	8	964.66
7	10	9	964.66
7	11	10	964.66
7	12	11	964.66
7	13	12	964.66
7	14	13	964.66
7	15	14	964.38576030096
7	16	15	957.85140301405
7	17	16	941.52442504054
7	18	17	926.69073806251
7	19	18	920.80547968775
7	20	19	927.00304306079
7	21	20	936.83411245689
7	22	21	949.74416506198
7	23	22	957.19215085138
7	24	23	961.46
7	25	24	961.46
7	26	25	958.25601353053
7	27	26	941.16068790377
7	28	27	899.82561425932
7	29	28	839.35562858921
7	30	29	783.03268263126
7	31	30	724.77003195998
7	32	31	662.20751386473
7	33	32	603.74707525406
7	34	33	552.30253737836
7	35	34	507.81554896078
7	36	35	469.78273346921
7	37	36	439.69260414743
7	38	37	417.33545079283
7	39	38	409.40892032277
7	40	39	403.11515679385
7	41	40	394.77467333213
7	42	41	374.1763661513
7	43	42	340.79035251595
7	44	43	294.11130655215
7	45	44	242.53195859438
7	46	45	191.06183315511
7	47	46	139.76448546241
7	48	47	91.540493865856
7	49	48	63.209569335031
7	50	49	54.559000667146
7	51	50	47.270271762962
7	52	51	39.995165397073
7	53	52	32.734375943996
7	54	53	31.816594875182
7	55	54	59.775936161129
7	56	55	110.83341641298
7	57	56	171.24928483761
7	58	57	232.18143169613
7	59	58	293.15983954152
7	60	59	354.13677894502
7	61	60	411.98669031533
7	62	61	469.67135309669
7	63	62	527.32408367298
7	64	63	582.19267860328
7	65	64	628.01961280781
7	66	65	662.1186559548
7	67	66	657.86651688509
7	68	67	651.35967649897
7	69	68	671.78094526684
7	70	69	704.17986498918
7	71	70	712.69522848534
7	72	71	712.66237602175
7	73	72	712.62626628047
7	74	73	712.59005161341
7	75	74	712.55391535665
7	76	75	712.51779618169
7	77	76	712.48163380653
7	78	77	712.44545586611
7	79	78	712.40939186107
7	80	79	712.37330255363
7	81	80	712.33718727383
7	82	81	712.30113571476
7	83	82	712.2650266876
7	84	83	712.22900443287
7	85	84	712.21427716311
7	86	85	713.86590045777
7	87	86	733.07559947102
7	88	87	766.77244061401
7	89	88	814.06279050098
7	90	89	862.18707433406
7	91	90	902.09818860315
7	92	91	931.56438060083
7	93	92	952.29428003547
7	94	93	957.50840599729
7	95	94	959.06442357168
7	96	95	959.66457495239
7	97	96	960.26471655902
7	98	97	960.86516269711
7	99	98	961.46
7	100	99	961.46
7	101	100	961.46
7	103	101	961.46
7	104	102	961.46
7	105	103	961.46
7	154	104	961.46
7	197	105	961.46
8	2	1	1405.3030811783
8	3	2	1395.4788594013
8	4	3	1377.5445768071
8	5	4	1347.3486698058
8	6	5	1304.7999681337
8	7	6	1249.3532870927
8	8	7	1181.9090836744
8	9	8	1108.8340683475
8	10	9	1032.7245449124
8	11	10	959.50610987163
8	12	11	898.72479542674
8	13	12	847.36793369761
8	14	13	805.44214883682
8	15	14	771.76096223083
8	16	15	748.27567795916
8	17	16	729.94574647744
8	18	17	729.69644806787
8	19	18	727.20738075883
8	20	19	712.9727923796
8	21	20	692.8817290884
8	22	21	659.32392626068
8	23	22	614.59098987864
8	24	23	559.480241967
8	25	24	489.85654076088
8	26	25	411.01747503685
8	27	26	334.65798169575
8	28	27	270.19384110535
8	29	28	234.80851730466
8	30	29	219.54137640248
8	31	30	209.92565685873
8	32	31	200.8743835188
8	33	32	193.20455464928
8	34	33	187.06238768612
8	35	34	182.29377819088
8	36	35	178.50175493862
8	37	36	164.8677529306
8	38	37	133.15456681238
8	39	38	114.93505662819
8	40	39	102.69097869749
8	41	40	86.304232675625
8	42	41	68.160631466157
8	43	42	50.057806152993
8	44	43	32.77696427466
8	45	44	45.744379997438
8	46	45	96.599747227169
8	47	46	159.93393991132
8	48	47	225.29535187974
8	49	48	282.80074442438
8	50	49	334.6120758735
8	51	50	367.55609177078
8	52	51	396.36682675857
8	53	52	429.90297306708
8	54	53	463.44716062648
8	55	54	496.83653839606
8	56	55	539.43933819697
8	57	56	593.6641112049
8	58	57	648.21277255152
8	59	58	702.00594282795
8	60	59	742.74953069255
8	61	60	785.35763542599
8	62	61	841.63130738499
8	63	62	892.85844225605
8	64	63	933.03282979509
8	65	64	994.17988420082
8	66	65	1069.6452089595
8	67	66	1154.8392490056
8	68	67	1240.3724577673
8	69	68	1325.9115458941
8	70	69	1411.3695477836
8	71	70	1496.9699876492
8	72	71	1582.4959596817
8	73	72	1668.0074380309
8	74	73	1753.3706912942
8	75	74	1838.6451667423
8	76	75	1924.1315965237
8	77	76	2001.1298455503
8	78	77	2057.8640263641
8	79	78	2095.1283366052
8	80	79	2110.2703118131
8	81	80	2106.7196644272
8	82	81	2070.4384372034
8	83	82	2013.9576752805
8	84	83	1947.8312962755
8	85	84	1873.1961081154
8	86	85	1792.3236309555
8	87	86	1706.9877220477
8	88	87	1621.5722427855
8	89	88	1536.1236598834
8	90	89	1450.6847571022
8	91	90	1365.15522834
8	92	91	1279.7884832376
8	93	92	1194.3097468225
8	94	93	1108.7109262317
8	95	94	1023.2267553434
8	96	95	939.20908748705
8	97	96	869.04000999543
8	98	97	813.52538388331
8	99	98	772.09521348086
8	100	99	742.47432675678
8	101	100	732.55
8	103	101	732.96020931079
8	104	102	719.67922259903
8	105	103	698.6497501414
8	154	104	666.57234910751
8	197	105	623.08642990507
9	2	1	961.46
9	3	2	961.46
9	4	3	961.46
9	5	4	961.46
9	6	5	961.46
9	7	6	961.46
9	8	7	961.46
9	9	8	961.46
9	10	9	961.46
9	11	10	961.46
9	12	11	961.46
9	13	12	961.46
9	14	13	961.46
9	15	14	961.46
9	16	15	961.46
9	17	16	955.65820858476
9	18	17	937.42402208938
9	19	18	925.08808044813
9	20	19	922.12573587347
9	21	20	932.10051274297
9	22	21	943.063923602
9	23	22	956.97347405433
9	24	23	963.01342384611
9	25	24	964.66
9	26	25	964.00034510845
9	27	26	951.00269448843
9	28	27	908.59339972926
9	29	28	839.54188255868
9	30	29	763.52609758795
9	31	30	684.9585096189
9	32	31	611.00286738843
9	33	32	548.33465502304
9	34	33	498.14857783951
9	35	34	459.20089868507
9	36	35	427.68006946376
9	37	36	409.12707659492
9	38	37	401.17093574857
9	39	38	381.5068137192
9	40	39	341.85057949422
9	41	40	288.77703307393
9	42	41	230.01336762522
9	43	42	171.38176753119
9	44	43	115.41241508089
9	45	44	69.689463682379
9	46	45	56.552338032523
9	47	46	48.483686925062
9	48	47	40.156772083117
9	49	48	32.830698605648
9	50	49	32.641705083773
9	51	50	68.495251891413
9	52	51	127.68318278355
9	53	52	196.57886041685
9	54	53	265.49105776067
9	55	54	334.08521840238
9	56	55	399.03124348072
9	57	56	464.41095278495
9	58	57	530.18117963781
9	59	58	595.04049836122
9	60	59	644.15912319387
9	61	60	661.45080602706
9	62	61	651.7685179936
9	63	62	667.79460161146
9	64	63	704.33324797162
9	65	64	712.6914921079
9	66	65	712.65511949594
9	67	66	712.61405785908
9	68	67	712.57283275043
9	69	68	712.53160480805
9	70	69	712.49041594745
9	71	70	712.44915843489
9	72	71	712.40793681419
9	73	72	712.36672217911
9	74	73	712.32557898524
9	75	74	712.2844785803
9	76	75	712.24327601808
9	77	76	712.20616457063
9	78	77	713.22359676581
9	79	78	732.15030235813
9	80	79	770.6781585433
9	81	80	824.58304637968
9	82	81	876.58218066939
9	83	82	916.53790864898
9	84	83	944.17725839164
9	85	84	956.43057160336
9	86	85	958.99452929084
9	87	86	959.6790160609
9	88	87	960.3641410717
9	89	88	961.04953160969
9	90	89	961.46
9	91	90	961.46
9	92	91	961.46
9	93	92	961.46
9	94	93	961.46
9	95	94	961.46
9	96	95	961.46
9	97	96	961.46
9	98	97	961.46
9	99	98	961.46
9	100	99	961.17623479781
9	101	100	948.8171189943
9	103	101	929.62111309559
9	104	102	920.25009445018
9	105	103	926.85265182376
9	154	104	937.33241203422
9	197	105	951.53936119732
10	2	1	1409.3011833136
10	3	2	1399.4964272161
10	4	3	1381.6126026585
10	5	4	1352.3273444422
10	6	5	1310.9094492691
10	7	6	1256.8307574924
10	8	7	1191.2527926734
10	9	8	1121.9759994641
10	10	9	1051.0493197103
10	11	10	979.33234397659
10	12	11	915.21917715687
10	13	12	861.1944390388
10	14	13	816.94322217255
10	15	14	782.25517094611
10	16	15	755.73840819659
10	17	16	737.93937948641
10	18	17	732.55
10	19	18	733.05389086682
10	20	19	723.34443396054
10	21	20	707.68543251322
10	22	21	682.2289601225
10	23	22	644.36628107985
10	24	23	603.31441413711
10	25	24	551.4174001334
10	26	25	487.33087593059
10	27	26	416.83199870848
10	28	27	350.45129699849
10	29	28	290.32402803836
10	30	29	250.28882010023
10	31	30	228.63008700518
10	32	31	216.74322575089
10	33	32	208.86719236328
10	34	33	201.78282568276
10	35	34	195.43732614309
10	36	35	189.88297236054
10	37	36	182.04092632355
10	38	37	177.79861506514
10	39	38	174.82173738449
10	40	39	161.89191439603
10	41	40	133.04048113962
10	42	41	117.52913060849
10	43	42	110.92140847102
10	44	43	100.92243033272
10	45	44	90.238661067682
10	46	45	74.389458979965
10	47	46	58.510581166047
10	48	47	42.844913312122
10	49	48	30.046562309834
10	50	49	51.350188382214
10	51	50	99.986106928754
10	52	51	157.02555573031
10	53	52	214.05940526311
10	54	53	269.84715493314
10	55	54	318.28359836918
10	56	55	356.14655397945
10	57	56	378.85117646235
10	58	57	407.0292729005
10	59	58	436.67929207826
10	60	59	466.42638177846
10	61	60	496.06965033808
10	62	61	529.48401871558
10	63	62	576.90646947042
10	64	63	627.28252350897
10	65	64	675.11059419089
10	66	65	718.75446377372
10	67	66	750.16067018801
10	68	67	792.45624166338
10	69	68	843.68353489348
10	70	69	889.58442598453
10	71	70	924.78372386309
10	72	71	975.08341014009
10	73	72	1041.7966678
10	74	73	1116.4237960611
10	75	74	1191.4116199735
10	76	75	1266.3418206566
10	77	76	1341.2061662932
10	78	77	1416.1822159632
10	79	78	1491.2060186863
10	80	79	1566.1482246499
10	81	80	1640.9868651412
10	82	81	1715.9280561236
10	83	82	1790.8162602164
10	84	83	1865.6217044857
10	85	84	1938.5763475841
10	86	85	2008.6134499469
10	87	86	2058.031633961
10	88	87	2091.376917001
10	89	88	2108.8691563834
10	90	89	2109.7292769219
10	91	90	2090.9825782502
10	92	91	2049.7677189626
10	93	92	1996.3038488107
10	94	93	1935.7662590685
10	95	94	1869.4575241376
10	96	95	1798.4265897278
10	97	96	1723.4969249672
10	98	97	1648.52421008
10	99	98	1573.6634957756
10	100	99	1498.7784894225
10	101	100	1423.933021812
10	103	101	1349.0840371093
10	104	102	1274.1034098187
10	105	103	1199.2922729752
10	154	104	1124.2312851382
10	197	105	1049.278123925
11	2	1	964.66
11	3	2	964.66
11	4	3	964.66
11	5	4	964.66
11	6	5	964.66
11	7	6	964.66
11	8	7	964.66
11	9	8	964.66
11	10	9	964.66
11	11	10	964.66
11	12	11	964.66
11	13	12	964.66
11	14	13	964.66
11	15	14	964.66
11	16	15	964.66
11	17	16	959.71206809279
11	18	17	948.83746771966
11	19	18	932.40421551599
11	20	19	922.65845784446
11	21	20	923.88818916226
11	22	21	932.2173614423
11	23	22	944.58718519683
11	24	23	954.99098944608
11	25	24	960.67872497505
11	26	25	961.46
11	27	26	960.9138491279
11	28	27	952.46464759857
11	29	28	923.89862445925
11	30	29	870.52797770196
11	31	30	807.10794281561
11	32	31	740.66312342685
11	33	32	676.310066621
11	34	33	618.4255162403
11	35	34	566.57806051724
11	36	35	521.19485467015
11	37	36	483.41076001856
11	38	37	448.77884484471
11	39	38	424.13051719967
11	40	39	407.90419294712
11	41	40	404.42585361317
11	42	41	398.53541399503
11	43	42	379.36763623042
11	44	43	346.98171624126
11	45	44	301.51989658231
11	46	45	250.18735248817
11	47	46	198.7586943742
11	48	47	148.02058267462
11	49	48	101.29237978486
11	50	49	65.345669432806
11	51	50	56.12092249222
11	52	51	48.854209327708
11	53	52	41.588209498982
11	54	53	34.480960332601
11	55	54	29.977189196185
11	56	55	46.14362038635
11	57	56	91.699543362234
11	58	57	149.58780013043
11	59	58	210.49993190313
11	60	59	271.6114825166
11	61	60	332.50974601693
11	62	61	392.03401231032
11	63	62	449.21204871062
11	64	63	504.94523078715
11	65	64	562.6123298695
11	66	65	615.23441517766
11	67	66	656.61354148619
11	68	67	660.0631512399
11	69	68	648.35047567212
11	70	69	665.72917099909
11	71	70	697.1979438484
11	72	71	712.70069618465
11	73	72	712.66854187482
11	74	73	712.63257325497
11	75	74	712.59643078781
11	76	75	712.56031609377
11	77	76	712.52423314041
11	78	77	712.48809634818
11	79	78	712.45193654003
11	80	79	712.41581605972
11	81	80	712.37974549566
11	82	81	712.34362550454
11	83	82	712.30753105193
11	84	83	712.27147648772
11	85	84	709.03630949196
11	86	85	709.00255284372
11	87	86	710.02367750323
11	88	87	728.57792778046
11	89	88	759.15068658469
11	90	89	805.09726594251
11	91	90	853.45235652381
11	92	91	896.00436288202
11	93	92	926.66064563857
11	94	93	948.2290773066
11	95	94	956.66320677035
11	96	95	958.94557692611
11	97	96	959.54659430402
11	98	97	960.14795699074
11	99	98	960.74842131102
11	100	99	961.34908047995
11	101	100	961.46
11	103	101	961.46
11	104	102	961.46
11	105	103	961.46
11	154	104	961.46
11	197	105	961.46
12	2	1	1415.4051373027
12	3	2	1407.3378605947
12	4	3	1394.9162656519
12	5	4	1373.0610883347
12	6	5	1339.5568789215
12	7	6	1293.8472950321
12	8	7	1236.2357284243
12	9	8	1170.4901183478
12	10	9	1100.1307776953
12	11	10	1029.0972764212
12	12	11	965.81448289957
12	13	12	909.66698417181
12	14	13	860.48443621982
12	15	14	818.96567511539
12	16	15	785.17473992705
12	17	16	758.47577537168
12	18	17	739.30048368755
12	19	18	729.44138980835
12	20	19	732.9995463884
12	21	20	726.41725403874
12	22	21	710.18604890014
12	23	22	686.48775323497
12	24	23	650.58892897159
12	25	24	611.11649109668
12	26	25	561.92725315247
12	27	26	499.75005044042
12	28	27	430.28402159658
12	29	28	364.10568092944
12	30	29	302.98352703342
12	31	30	258.77888527513
12	32	31	233.1503914868
12	33	32	218.98041797774
12	34	33	210.98314142091
12	35	34	203.73501820045
12	36	35	197.27128577084
12	37	36	191.63360623563
12	38	37	185.87474503238
12	39	38	178.15938755154
12	40	39	172.69578827425
12	41	40	152.66246643796
12	42	41	126.37922631744
12	43	42	115.33016679306
12	44	43	105.106283506
12	45	44	90.666475520265
12	46	45	77.602191324871
12	47	46	62.039647014131
12	48	47	46.417819660322
12	49	48	31.264948576703
12	50	49	27.841373072337
12	51	50	52.152925945165
12	52	51	97.658951944413
12	53	52	153.57126051202
12	54	53	209.65866674718
12	55	54	264.54079912973
12	56	55	315.02206778186
12	57	56	345.87008342753
12	58	57	370.0626010135
12	59	58	395.52653637144
12	60	59	424.66194814841
12	61	60	453.80432043688
12	62	61	482.98474078074
12	63	62	512.13823692319
12	64	63	554.03512675767
12	65	64	600.96629908365
12	66	65	647.85328183239
12	67	66	697.25071757914
12	68	67	731.88720777443
12	69	68	749.35945128938
12	70	69	770.46434107866
12	71	70	805.78992188734
12	72	71	853.76607330603
12	73	72	895.25346748979
12	74	73	929.75547762958
12	75	74	981.33734144445
12	76	75	1047.3800305671
12	77	76	1121.0502273254
12	78	77	1194.7230172719
12	79	78	1268.3726074622
12	80	79	1341.9604710426
12	81	80	1415.5072552261
12	82	81	1489.1123924503
12	83	82	1562.6364511584
12	84	83	1636.2346176483
12	85	84	1709.9769702
12	86	85	1783.5706532951
12	87	86	1857.0921313458
12	88	87	1930.6614307375
12	89	88	1998.5160667318
12	90	89	2048.7884171287
12	91	90	2085.9283138424
12	92	91	2106.9211171459
12	93	92	2110.3799730013
12	94	93	2099.0035911392
12	95	94	2061.5435333626
12	96	95	2011.2831730975
12	97	96	1954.0627213779
12	98	97	1890.6880448922
12	99	98	1822.3305216771
12	100	99	1748.9043671468
12	101	100	1675.2038838772
12	103	101	1601.5899160632
12	104	102	1527.927599689
12	105	103	1454.3440035186
12	154	104	1380.8255794282
12	197	105	1307.1907512582
13	2	1	961.46
13	3	2	961.46
13	4	3	961.46
13	5	4	961.46
13	6	5	961.46
13	7	6	961.46
13	8	7	961.46
13	9	8	961.46
13	10	9	961.46
13	11	10	961.46
13	12	11	961.46
13	13	12	961.46
13	14	13	961.46
13	15	14	961.46
13	16	15	961.46
13	17	16	961.46
13	18	17	963.82340923893
13	19	18	950.35488418663
13	20	19	934.17141744377
13	21	20	920.41294752383
13	22	21	923.05465036662
13	23	22	930.82600400167
13	24	23	942.55423191266
13	25	24	954.13590845202
13	26	25	959.52688097076
13	27	26	961.46
13	28	27	961.17957661953
13	29	28	956.08579143884
13	30	29	932.19390332758
13	31	30	884.93863680881
13	32	31	824.21480719717
13	33	32	758.94264960129
13	34	33	693.59894583248
13	35	34	634.37638259704
13	36	35	581.5628761339
13	37	36	535.49883684817
13	38	37	488.44465310989
13	39	38	451.72240060126
13	40	39	419.03928505465
13	41	40	405.58761787875
13	42	41	399.63696613297
13	43	42	382.78650022
13	44	43	349.6732913189
13	45	44	313.76346859887
13	46	45	271.44925840499
13	47	46	221.04337613336
13	48	47	170.44548065168
13	49	48	121.36649840641
13	50	49	90.102604523449
13	51	50	65.164333141248
13	52	51	56.417397442731
13	53	52	49.294279718714
13	54	53	42.148854897547
13	55	54	31.926366309111
13	56	55	26.611072183745
13	57	56	37.215768017092
13	58	57	73.644551133553
13	59	58	125.95691480101
13	60	59	185.81185218809
13	61	60	245.6810890463
13	62	61	305.62849071614
13	63	62	365.52058009447
13	64	63	421.63569098685
13	65	64	478.22138482701
13	66	65	534.75379856006
13	67	66	589.30704431065
13	68	67	636.07059394715
13	69	68	656.08195617666
13	70	69	659.43597030214
13	71	70	657.45664729046
13	72	71	647.79558659812
13	73	72	669.99263672391
13	74	73	701.75441813556
13	75	74	712.69768192854
13	76	75	712.66585081786
13	77	76	712.63034341776
13	78	77	712.59483476779
13	79	78	712.5593372996
13	80	79	712.52386958226
13	81	80	712.48842166427
13	82	81	712.45294562142
13	83	82	712.41750865661
13	84	83	712.3820359735
13	85	84	712.3464937959
13	86	85	712.31102327369
13	87	86	712.2755875527
13	88	87	712.24012878289
13	89	88	712.20742435402
13	90	89	712.55571892465
13	91	90	723.4255425616
13	92	91	751.01582477924
13	93	92	793.10474001841
13	94	93	841.24684558752
13	95	94	885.70182637286
13	96	95	918.07147318371
13	97	96	942.08454987662
13	98	97	955.34212751403
13	99	98	958.75384140257
13	100	99	959.34279899375
13	101	100	959.93395699968
13	103	101	960.5244210576
13	104	102	961.11527292353
13	105	103	961.46
13	154	104	961.46
13	197	105	961.46
14	2	1	1419.3579626155
14	3	2	1411.3659180251
14	4	3	1398.8706120144
14	5	4	1377.6727418789
14	6	5	1345.8791474311
14	7	6	1301.775546911
14	8	7	1244.7441844575
14	9	8	1181.9065169407
14	10	9	1115.5645434275
14	11	10	1047.0888793186
14	12	11	982.27397879049
14	13	12	924.33625031977
14	14	13	873.60942352444
14	15	14	830.78960717595
14	16	15	795.39627907222
14	17	16	767.48079209751
14	18	17	744.58139116036
14	19	18	733.95240546744
14	20	19	729.63819275902
14	21	20	727.56869054191
14	22	21	714.70852618625
14	23	22	695.07203491545
14	24	23	664.07138496871
14	25	24	622.64332092453
14	26	25	572.42800851514
14	27	26	507.25057386539
14	28	27	431.88168171239
14	29	28	360.64893714101
14	30	29	294.83328644939
14	31	30	249.8421914378
14	32	31	225.68406244537
14	33	32	213.10082420512
14	34	33	204.22010131308
14	35	34	195.35354568512
14	36	35	186.46300574202
14	37	36	178.35051097153
14	38	37	171.30736514876
14	39	38	146.10272197966
14	40	39	119.62088170002
14	41	40	109.60022398591
14	42	41	95.454954531137
14	43	42	78.77363368767
14	44	43	62.075857396513
14	45	44	45.337748515566
14	46	45	30.108656464769
14	47	46	51.676840920054
14	48	47	103.07348855996
14	49	48	163.1704353814
14	50	49	223.27767979339
14	51	50	283.52271812674
14	52	51	334.04913409668
14	53	52	365.29616144461
14	54	53	391.13472399876
14	55	54	421.91871409646
14	56	55	453.16747429581
14	57	56	484.41540136917
14	58	57	515.64347706693
14	59	58	563.18621164426
14	60	59	613.58430119761
14	61	60	663.94284311282
14	62	61	712.19049084879
14	63	62	741.8961690986
14	64	63	755.34167980946
14	65	64	782.61141668381
14	66	65	822.92091334361
14	67	66	874.34251648656
14	68	67	912.16863044373
14	69	68	957.30269802207
14	70	69	1021.1444121935
14	71	70	1096.9836186215
14	72	71	1175.9507523282
14	73	72	1254.8499730306
14	74	73	1333.7197075476
14	75	74	1412.704048231
14	76	75	1491.5546866154
14	77	76	1570.4444361163
14	78	77	1649.390548578
14	79	78	1728.3630623239
14	80	79	1807.4143563452
14	81	80	1886.3504348665
14	82	81	1965.1063487404
14	83	82	2028.8337414284
14	84	83	2075.0924264078
14	85	84	2102.4502743834
14	86	85	2110.928860603
14	87	86	2103.2152064421
14	88	87	2064.6171532752
14	89	88	2011.2614269305
14	90	89	1950.3088513489
14	91	90	1881.727359509
14	92	91	1808.0923498712
14	93	92	1729.1321272908
14	94	93	1650.3127937676
14	95	94	1571.4187488371
14	96	95	1492.4666163102
14	97	96	1413.70174433
14	98	97	1334.6564768342
14	99	98	1255.6248517501
14	100	99	1176.5883075468
14	101	100	1097.5973099333
14	103	101	1018.7385727438
14	104	102	939.82999795835
14	105	103	861.17340481532
14	154	104	801.78374141421
14	197	105	765.5687047199
15	2	1	964.66
15	3	2	964.66
15	4	3	964.66
15	5	4	964.66
15	6	5	964.66
15	7	6	964.66
15	8	7	964.66
15	9	8	964.66
15	10	9	964.66
15	11	10	964.66
15	12	11	964.66
15	13	12	964.66
15	14	13	964.66
15	15	14	964.66
15	16	15	964.66
15	17	16	964.66
15	18	17	964.65344926336
15	19	18	955.8519980782
15	20	19	939.31839842899
15	21	20	925.37033329856
15	22	21	924.9212646658
15	23	22	931.38493482471
15	24	23	941.51291799476
15	25	24	955.04756117573
15	26	25	961.59439284345
15	27	26	964.66
15	28	27	964.41238509665
15	29	28	958.90192698361
15	30	29	931.32753963605
15	31	30	876.06892372953
15	32	31	808.46828717774
15	33	32	737.19325107558
15	34	33	664.63113298613
15	35	34	592.18477199234
15	36	35	519.54244128648
15	37	36	453.28178349301
15	38	37	417.06702739041
15	39	38	404.10246024089
15	40	39	395.80476708251
15	41	40	364.22830781531
15	42	41	318.41447668412
15	43	42	264.38685857397
15	44	43	210.30594440579
15	45	44	156.09440066823
15	46	45	103.21426960467
15	47	46	65.270547039808
15	48	47	55.727596167812
15	49	48	48.071363791976
15	50	49	40.413819523434
15	51	50	32.738720581357
15	52	51	32.430378811182
15	53	52	63.852517159959
15	54	53	116.93450397688
15	55	54	180.17623242495
15	56	55	244.37277096963
15	57	56	308.56759796468
15	58	57	372.72164287457
15	59	58	432.66930600293
15	60	59	493.43511951779
15	61	60	554.15324978861
15	62	61	612.32623989277
15	63	62	648.13583572481
15	64	63	660.05098986399
15	65	64	661.98764431006
15	66	65	654.1078346492
15	67	66	657.00478673734
15	68	67	685.63656098529
15	69	68	712.70926609334
15	70	69	712.67849580375
15	71	70	712.64194298912
15	72	71	712.60388258294
15	73	72	712.56585490933
15	74	73	712.5278414474
15	75	74	712.48977274784
15	76	75	712.45176848983
15	77	76	712.41374538112
15	78	77	712.37569510672
15	79	78	712.33763210749
15	80	79	712.29953113791
15	81	80	712.26148569964
15	82	81	712.22352709674
15	83	82	712.25222764796
15	84	83	717.15457903973
15	85	84	742.12749059995
15	86	85	782.98857519009
15	87	86	834.8380643837
15	88	87	882.55054726612
15	89	88	918.08394247641
15	90	89	943.34521748393
15	91	90	955.89971042587
15	92	91	958.86804702076
15	93	92	959.50139385456
15	94	93	960.13361060495
15	95	94	960.76642662205
15	96	95	961.39970856483
15	97	96	961.46
15	98	97	961.46
15	99	98	961.46
15	100	99	961.46
15	101	100	961.46
15	103	101	961.46
15	104	102	961.46
15	105	103	961.46
15	154	104	961.46
15	197	105	961.46
16	2	1	1425.3365027608
16	3	2	1417.933477458
16	4	3	1408.5716965994
16	5	4	1393.2143482038
16	6	5	1368.0356628831
16	7	6	1331.2585157565
16	8	7	1282.9760251152
16	9	8	1225.2679179242
16	10	9	1161.3091812385
16	11	10	1094.2830349594
16	12	11	1031.1145177777
16	13	12	972.65069358417
16	14	13	919.3442228594
16	15	14	871.81733724235
16	16	15	830.86953248455
16	17	16	796.84243389082
16	18	17	769.59610613962
16	19	18	748.10108940932
16	20	19	734.92105031995
16	21	20	732.78774564843
16	22	21	730.67267554386
16	23	22	713.62460057879
16	24	23	688.6634145986
16	25	24	652.12350657297
16	26	25	609.53908492615
16	27	26	554.59451740824
16	28	27	490.98892785683
16	29	28	427.53182054833
16	30	29	363.36398390571
16	31	30	303.71367090485
16	32	31	259.66646656472
16	33	32	233.69467716694
16	34	33	219.36559711581
16	35	34	211.8342132508
16	36	35	204.89154050871
16	37	36	198.63808599978
16	38	37	192.53556095044
16	39	38	187.10696771817
16	40	39	179.4416805303
16	41	40	178.73649322262
16	42	41	168.73026692113
16	43	42	143.87048656736
16	44	43	120.28633828512
16	45	44	113.69751730641
16	46	45	105.58128538335
16	47	46	93.707110121573
16	48	47	77.745611324849
16	49	48	59.969180717076
16	50	49	43.529739656395
16	51	50	29.244133824734
16	52	51	33.701115866047
16	53	52	53.925901492863
16	54	53	79.53730143207
16	55	54	119.48703681877
16	56	55	173.44087414928
16	57	56	236.87889996182
16	58	57	295.96495014826
16	59	58	329.65481046589
16	60	59	353.35188141078
16	61	60	371.97299168436
16	62	61	395.12447543095
16	63	62	424.38708896675
16	64	63	457.56046526291
16	65	64	490.69072025619
16	66	65	526.58582697735
16	67	66	579.52050756817
16	68	67	633.06202457513
16	69	68	685.17307485332
16	70	69	723.56988068787
16	71	70	746.43975194972
16	72	71	764.78523652618
16	73	72	798.60736983673
16	74	73	844.00245987223
16	75	74	892.71179463655
16	76	75	932.12157752613
16	77	76	991.16672298575
16	78	77	1064.022596014
16	79	78	1147.0899590809
16	80	79	1230.9379761688
16	81	80	1314.2180524272
16	82	81	1395.0608703697
16	83	82	1473.6012669206
16	84	83	1550.7055486479
16	85	84	1626.9909336946
16	86	85	1702.1585450846
16	87	86	1776.868398876
16	88	87	1851.1695022568
16	89	88	1923.5432336183
16	90	89	2000.2110882835
16	91	90	2056.8479763254
16	92	91	2094.5957769082
16	93	92	2104.127878052
16	94	93	2110.6876482022
16	95	94	2108.2586130863
16	96	95	2083.7102414952
16	97	96	2033.1443307708
16	98	97	1970.9327583075
16	99	98	1902.2525211933
16	100	99	1828.3033347474
16	101	100	1754.0460554768
16	103	101	1702.1541482411
16	104	102	1689.4210915437
16	105	103	1689.4210915437
16	154	104	1689.4210915437
16	197	105	1689.4210915437
17	2	1	961.46
17	3	2	961.46
17	4	3	961.46
17	5	4	961.46
17	6	5	961.46
17	7	6	961.46
17	8	7	961.46
17	9	8	961.46
17	10	9	961.46
17	11	10	961.46
17	12	11	961.46
17	13	12	961.46
17	14	13	961.46
17	15	14	961.46
17	16	15	961.46
17	17	16	961.46
17	18	17	961.46
17	19	18	964.66
17	20	19	957.27061624871
17	21	20	941.05886372896
17	22	21	923.73239396643
17	23	22	921.90846647374
17	24	23	930.11521046307
17	25	24	942.05288190398
17	26	25	954.30878678215
17	27	26	960.33052377021
17	28	27	961.46
17	29	28	961.12521041104
17	30	29	956.00317373796
17	31	30	932.59951239455
17	32	31	886.44517782239
17	33	32	826.27462890891
17	34	33	762.08984994102
17	35	34	700.55283634045
17	36	35	643.82603093368
17	37	36	592.73065164305
17	38	37	542.86847841041
17	39	38	498.51282989296
17	40	39	462.18467536291
17	41	40	429.73094078708
17	42	41	410.94706327473
17	43	42	403.59707142687
17	44	43	401.12672752917
17	45	44	388.35923891029
17	46	45	362.07138888819
17	47	46	323.61184985866
17	48	47	271.91378473757
17	49	48	214.33729528097
17	50	49	161.09121198184
17	51	50	114.821235084
17	52	51	78.065549122407
17	53	52	64.768784793705
17	54	53	59.154399428206
17	55	54	53.636542524858
17	56	55	46.762930169844
17	57	56	38.681050926823
17	58	57	27.922675034624
17	59	58	30.780765881931
17	60	59	43.715702747947
17	61	60	77.569201825451
17	62	61	125.13093257007
17	63	62	185.24718952828
17	64	63	253.39760306367
17	65	64	321.45942945625
17	66	65	388.53961440246
17	67	66	452.36383785533
17	68	67	516.91973405264
17	69	68	574.74482990767
17	70	69	626.04452241053
17	71	70	653.61287014029
17	72	71	662.38654850682
17	73	72	658.86071203272
17	74	73	651.53921312891
17	75	74	667.69816967176
17	76	75	703.70564530599
17	77	76	712.69294438475
17	78	77	712.65782947061
17	79	78	712.61779284487
17	80	79	712.57737996121
17	81	80	712.53724081243
17	82	81	712.49827636807
17	83	82	712.46042163974
17	84	83	712.42325908688
17	85	84	712.38649122405
17	86	85	712.35026210332
17	87	86	712.3142536116
17	88	87	712.2784421285
17	89	88	709.04355518779
17	90	89	709.00660263387
17	91	90	709.91786867666
17	92	91	727.22313235298
17	93	92	745.46267880029
17	94	93	774.11163453109
17	95	94	815.96649627288
17	96	95	862.97504616256
17	97	96	905.53624464314
17	98	97	936.41906094736
17	99	98	954.62252247333
17	100	99	958.70593294786
17	101	100	959.30155706309
17	103	101	962.91797783645
17	104	102	963.02011368989
17	105	103	963.02011368989
17	154	104	963.02011368989
17	197	105	963.02011368989
18	2	1	1429.3469614707
18	3	2	1421.9457296383
18	4	3	1412.5671133055
18	5	4	1397.4071241355
18	6	5	1373.2545346091
18	7	6	1338.1070738044
18	8	7	1290.7017748695
18	9	8	1235.0624650186
18	10	9	1174.4676311145
18	11	10	1110.3636404233
18	12	11	1046.7802324402
18	13	12	987.46091205392
18	14	13	933.06433919799
18	15	14	884.61760280048
18	16	15	842.49580386355
18	17	16	807.3054268939
18	18	17	777.39913915919
18	19	18	757.28769852067
18	20	19	738.22304027994
18	21	20	729.36876114635
18	22	21	729.77502019589
18	23	22	719.47834120077
18	24	23	699.73654948349
18	25	24	667.80297185332
18	26	25	624.47685872646
18	27	26	572.13924244175
18	28	27	506.38786056697
18	29	28	435.37296370054
18	30	29	364.22699513404
18	31	30	297.98232088283
18	32	31	251.63318490818
18	33	32	226.49926040669
18	34	33	213.45207131447
18	35	34	204.62138342845
18	36	35	195.75793224327
18	37	36	187.29355174391
18	38	37	184.85470245819
18	39	38	180.89213764084
18	40	39	178.38382288919
18	41	40	165.51319375903
18	42	41	142.8446002786
18	43	42	123.86777571532
18	44	43	117.77163248321
18	45	44	110.26803113608
18	46	45	98.824461490338
18	47	46	83.719509038611
18	48	47	65.935512517127
18	49	48	48.646799802803
18	50	49	32.935094214381
18	51	50	41.063555656398
18	52	51	59.210491460027
18	53	52	87.974628196802
18	54	53	132.78875517098
18	55	54	191.24980608424
18	56	55	255.61779331899
18	57	56	308.89839897753
18	58	57	336.78627195137
18	59	58	361.73047285763
18	60	59	383.41181493654
18	61	60	411.22535397862
18	62	61	443.5945568266
18	63	62	475.40930647343
18	64	63	507.21476749418
18	65	64	554.29828633779
18	66	65	608.03014635896
18	67	66	659.15378277444
18	68	67	710.28815413574
18	69	68	748.43992950973
18	70	69	792.80197736088
18	71	70	849.31937632809
18	72	71	897.34019296351
18	73	72	938.55126681896
18	74	73	1000.5917548659
18	75	74	1074.7560840026
18	76	75	1158.4291016662
18	77	76	1241.8491105839
18	78	77	1322.7745259951
18	79	78	1402.0673793363
18	80	79	1480.0945391527
18	81	80	1557.1577005723
18	82	81	1633.5380568708
18	83	82	1709.5235181964
18	84	83	1785.2097823094
18	85	84	1859.9278632859
18	86	85	1939.2699533978
18	87	86	2008.187456335
18	88	87	2058.2136464828
18	89	88	2089.6468511952
18	90	89	2109.0494029666
18	91	90	2109.5218180641
18	92	91	2088.2230023615
18	93	92	2047.1605361258
18	94	93	1994.0231293763
18	95	94	1933.5258076311
18	96	95	1867.1684185441
18	97	96	1795.4546378875
18	98	97	1722.6209479887
18	99	98	1649.1409486828
18	100	99	1575.2602984637
18	101	100	1501.1477601101
18	103	101	1426.6881667853
18	104	102	1351.9927744657
18	105	103	1277.4567655847
18	154	104	1202.8192445254
18	197	105	1128.0218914403
19	2	1	964.66
19	3	2	964.66
19	4	3	964.66
19	5	4	964.66
19	6	5	964.66
19	7	6	964.66
19	8	7	964.66
19	9	8	964.66
19	10	9	964.66
19	11	10	964.66
19	12	11	964.66
19	13	12	964.66
19	14	13	964.66
19	15	14	964.66
19	16	15	964.66
19	17	16	964.66
19	18	17	964.66
19	19	18	961.46
19	20	19	959.83857428577
19	21	20	948.0799153149
19	22	21	929.91635394714
19	23	22	923.5884829559
19	24	23	929.86102725753
19	25	24	940.29380003337
19	26	25	954.44854018644
19	27	26	961.62604061908
19	28	27	964.66
19	29	28	964.48133321491
19	30	29	959.32759795259
19	31	30	933.07745909645
19	32	31	879.1094883424
19	33	32	811.55399031538
19	34	33	740.06320147684
19	35	34	667.90990663968
19	36	35	595.48891125473
19	37	36	526.32862049738
19	38	37	480.11014581534
19	39	38	447.76486277565
19	40	39	426.64971576874
19	41	40	412.84954681035
19	42	41	406.64555325457
19	43	42	402.34910906812
19	44	43	390.69394215307
19	45	44	366.39120786497
19	46	45	329.32766736725
19	47	46	280.40560596146
19	48	47	222.80663154263
19	49	48	166.81178695505
19	50	49	115.92456781
19	51	50	73.480634776574
19	52	51	63.589800215115
19	53	52	54.422326105033
19	54	53	48.712643477983
19	55	54	44.494107401449
19	56	55	36.293752909259
19	57	56	26.948974519988
19	58	57	33.457890294996
19	59	58	56.527270866904
19	60	59	101.06878558909
19	61	60	158.20810631057
19	62	61	224.70644944595
19	63	62	290.06574014941
19	64	63	355.40594857126
19	65	64	416.94692401057
19	66	65	481.73231994105
19	67	66	548.37900020867
19	68	67	605.02649807431
19	69	68	651.01857996636
19	70	69	659.99556588868
19	71	70	651.02503497503
19	72	71	671.92774051911
19	73	72	707.57700063879
19	74	73	712.68840172852
19	75	74	712.65265616758
19	76	75	712.61232762976
19	77	76	712.57212103654
19	78	77	712.53311678203
19	79	78	712.49489938622
19	80	79	712.45729202661
19	81	80	712.42014929282
19	82	81	712.38333565596
19	83	82	712.34671234971
19	84	83	712.31023324987
19	85	84	712.27422079283
19	86	85	712.23597966599
19	87	86	712.20276295884
19	88	87	713.25452737273
19	89	88	726.93043329727
19	90	89	760.63359660966
19	91	90	808.81909161517
19	92	91	857.65158100527
19	93	92	897.49932637825
19	94	93	927.96841441159
19	95	94	948.98149135692
19	96	95	956.80564745516
19	97	96	958.96941521109
19	98	97	959.55362059178
19	99	98	960.1430100766
19	100	99	960.73561321736
19	101	100	961.33007635306
19	103	101	961.46
19	104	102	961.46
19	105	103	961.46
19	154	104	961.46
19	197	105	961.46
20	3	2	27.146919488192
20	4	3	42.620591680363
20	5	4	56.214099112137
20	6	5	69.580181027537
20	7	6	84.43895071422
20	8	7	84.533843667754
20	9	8	84.73176008842
20	10	9	84.6263569463
20	11	10	58.959530884025
20	12	11	34.889788068037
20	13	12	24.406734270924
20	14	13	18.583763230345
20	15	14	17.224758974645
20	16	15	16.817650825314
20	17	16	27.717260972538
20	18	17	42.863735551747
20	19	18	48.073429255991
20	20	19	60.624375295674
20	21	20	75.443312017213
20	22	21	77.151377446336
20	23	22	77.001850751593
20	24	23	76.49235057015
20	25	24	76.762034854703
20	26	25	78.707244469077
20	27	26	78.891803247825
20	28	27	79.003912329901
20	29	28	78.159124802629
20	30	29	60.979282558134
20	31	30	21.020844510529
20	32	31	30.741734978632
20	33	32	32.871141470071
20	34	33	36.385093035322
20	35	34	50.707207501522
20	36	35	61.081956707488
20	37	36	60.730752490053
20	38	37	61.036808055231
20	39	38	53.432237233848
20	40	39	50.585854101756
20	41	40	61.270966346839
20	42	41	65.446088331398
20	43	42	65.537137001446
20	44	43	57.060978931868
20	45	44	48.857068557467
20	46	45	60.648356571604
20	47	46	73.721634674697
20	48	47	77.255202878537
20	49	48	76.955283342573
20	50	49	76.961562597347
20	51	50	85.286200266793
20	52	51	85.088049779176
20	53	52	85.352740296601
20	54	53	67.529483501129
20	55	54	29.966310438651
20	56	55	22.003737878194
20	57	56	34.929902406922
20	58	57	48.589417410619
20	59	58	50.869465884234
20	60	59	55.397326580484
20	61	60	63.622119835277
20	62	61	76.934438941514
20	63	62	84.64316609392
20	64	63	85.021830587877
20	65	64	85.021050867201
20	66	65	85.348599963747
20	67	66	85.239887049464
20	68	67	85.182850935283
20	69	68	84.809810565082
20	70	69	84.573418392749
20	71	70	84.902268466489
20	72	71	84.786664604787
20	73	72	80.531097301682
20	74	73	56.941211989456
20	75	74	43.140943690371
20	76	75	43.427162176422
20	77	76	56.700314588592
20	78	77	65.702320845095
20	79	78	69.564816261202
20	80	79	72.537576385288
20	81	80	77.072701317036
20	82	81	80.447431050422
20	83	82	85.035247146776
20	84	83	84.611546741352
20	85	84	84.826615028475
20	86	85	85.221484253109
20	87	86	84.735145232752
20	88	87	84.852138407059
20	89	88	84.725333833085
20	90	89	84.795536994092
20	91	90	84.837247468248
20	92	91	84.705469762553
20	93	92	84.720806744132
20	94	93	60.615644323837
20	95	94	38.655834285214
20	96	95	23.888887269394
20	97	96	18.858571582274
20	98	97	16.943722096426
20	99	98	17.061792163484
20	100	99	26.794782657125
20	101	100	39.951803233516
20	103	101	47.437155840092
20	104	102	58.131306700886
20	105	103	72.787938445469
20	154	104	76.536835727087
20	197	105	76.689481451005
21	3	2	28.155305615673
21	4	3	41.588953310531
21	5	4	53.847191228857
21	6	5	67.29151309426
21	7	6	81.661791457376
21	8	7	82.706238697034
21	9	8	83.538214556345
21	10	9	83.092137145165
21	11	10	59.423811729951
21	12	11	38.635496460646
21	13	12	27.723077346473
21	14	13	10.873673826686
21	15	14	18.88941269252
21	16	15	16.492966194465
21	17	16	18.350982680754
21	18	17	30.722242044536
21	19	18	44.155301179965
21	20	19	47.749087489443
21	21	20	61.823258735356
21	22	21	73.371544672456
21	23	22	74.002267617825
21	24	23	74.949984165222
21	25	24	74.933927793633
21	26	25	75.094200374065
21	27	26	74.958983685188
21	28	27	76.987115680799
21	29	28	76.771490543406
21	30	29	70.587191567851
21	31	30	46.816796686891
21	32	31	38.535813412973
21	33	32	17.770181702068
21	34	33	30.963305355366
21	35	34	32.048301459542
21	36	35	36.711396532319
21	37	36	51.681414468517
21	38	37	59.720114373486
21	39	38	60.08856201584
21	40	39	59.359207398421
21	41	40	52.167785324636
21	42	41	49.652381351795
21	43	42	60.093603062225
21	44	43	63.741127563617
21	45	44	64.023265211773
21	46	45	59.641266116849
21	47	46	47.088826113148
21	48	47	59.190117768897
21	49	48	73.461625066632
21	50	49	75.34824422637
21	51	50	74.859316711077
21	52	51	74.887998208469
21	53	52	80.344786302764
21	54	53	82.955469898165
21	55	54	82.190271198746
21	56	55	77.068355163443
21	57	56	59.18014749994
21	58	57	46.13360859317
21	59	58	59.89559680759
21	60	59	48.345602533595
21	61	60	54.761946947766
21	62	61	63.395746863503
21	63	62	77.79405748128
21	64	63	83.475392930101
21	65	64	81.914778747835
21	66	65	83.018024772042
21	67	66	82.95118593742
21	68	67	82.902369512066
21	69	68	83.289268222994
21	70	69	83.455181982888
21	71	70	83.479903248752
21	72	71	82.738128759091
21	73	72	82.869050245204
21	74	73	72.142839426817
21	75	74	55.209555958468
21	76	75	44.528648319701
21	77	76	41.24068254042
21	78	77	52.510750178015
21	79	78	60.699151899503
21	80	79	68.340423045936
21	81	80	68.706065776804
21	82	81	72.258530497923
21	83	82	76.788453789381
21	84	83	83.225071370772
21	85	84	83.526195508598
21	86	85	83.038469814889
21	87	86	83.571501123726
21	88	87	83.261747657538
21	89	88	82.866854366784
21	90	89	83.152560784768
21	91	90	83.503411259067
21	92	91	82.824208750723
21	93	92	83.047569836986
21	94	93	83.456228574978
21	95	94	65.342633900112
21	96	95	51.224088909101
21	97	96	37.295274523181
21	98	97	24.058118121438
21	99	98	18.02237828414
21	100	99	18.025606724811
21	101	100	17.183918238766
21	103	101	24.814893837315
21	104	102	39.090800943547
21	105	103	46.854477816983
21	154	104	56.239079376194
21	197	105	69.531345175765
22	3	2	18.654408558489
22	4	3	32.473005602041
22	5	4	45.525893364499
22	6	5	58.573334256515
22	7	6	72.02538835907
22	8	7	78.458656676091
22	9	8	80.878596294739
22	10	9	81.576649369699
22	11	10	65.44828910574
22	12	11	49.688705559752
22	13	12	37.873530030556
22	14	13	23.65018097172
22	15	14	20.655143179214
22	16	15	17.998063895338
22	17	16	16.836543378338
22	18	17	16.713745881758
22	19	18	29.668906621157
22	20	19	44.029866532503
22	21	20	46.356344630193
22	22	21	59.287115843264
22	23	22	71.978006578769
22	24	23	73.603378387581
22	25	24	74.351487206988
22	26	25	73.766524347494
22	27	26	74.385699111753
22	28	27	73.631303747831
22	29	28	75.259360106357
22	30	29	75.885843921404
22	31	30	60.5202402236
22	32	31	50.664646056986
22	33	32	36.470862294258
22	34	33	33.581627830387
22	35	34	20.729533558245
22	36	35	31.404964428799
22	37	36	29.568377732976
22	38	37	39.97656598061
22	39	38	52.135350894487
22	40	39	58.930463719395
22	41	40	58.452757852691
22	42	41	58.561463023982
22	43	42	50.967318180165
22	44	43	49.493407072409
22	45	44	60.306771722887
22	46	45	62.710435850071
22	47	46	62.507454955056
22	48	47	58.791135162644
22	49	48	46.353215327529
22	50	49	59.963810987837
22	51	50	73.651635841624
22	52	51	74.27179512516
22	53	52	73.652191443828
22	54	53	73.530170701741
22	55	54	79.0652842184
22	56	55	82.094522096546
22	57	56	81.53608017485
22	58	57	78.064817525846
22	59	58	43.793722331614
22	60	59	16.245119489782
22	61	60	29.885900505708
22	62	61	42.32829911628
22	63	62	55.751157938439
22	64	63	51.199906963351
22	65	64	54.60149334461
22	66	65	69.024857125213
22	67	66	82.056498017142
22	68	67	81.221835467471
22	69	68	81.520578433973
22	70	69	81.904435783279
22	71	70	81.947273273048
22	72	71	81.973026585676
22	73	72	82.008829149142
22	74	73	81.642662884811
22	75	74	81.338867578193
22	76	75	81.714153571314
22	77	76	81.404870323693
22	78	77	73.910345959393
22	79	78	51.993930739269
22	80	79	41.782360710632
22	81	80	41.963153945408
22	82	81	53.215673417258
22	83	82	62.247571946172
22	84	83	66.923180886289
22	85	84	67.460258849734
22	86	85	71.706707116693
22	87	86	75.875027624376
22	88	87	81.780223735519
22	89	88	82.118252915869
22	90	89	82.099627290181
22	91	90	81.953032187236
22	92	91	81.853451070635
22	93	92	81.405527410962
22	94	93	82.052259134272
22	95	94	82.101207320209
22	96	95	81.337810335009
22	97	96	81.889657277222
22	98	97	81.837102160956
22	99	98	68.73454806959
22	100	99	52.549549015493
22	101	100	37.197639198018
22	103	101	26.80190671723
22	104	102	18.193453387193
22	105	103	18.334003059448
22	154	104	16.350618174046
22	197	105	22.475865553204
23	3	2	19.399410528232
23	4	3	31.065733529303
23	5	4	43.858661693765
23	6	5	56.586817772182
23	7	6	70.523671580869
23	8	7	75.180689730437
23	9	8	75.217249696084
23	10	9	74.852748196537
23	11	10	68.436648103237
23	12	11	52.976828335661
23	13	12	42.867231865514
23	14	13	29.2603648954
23	15	14	21.647547607709
23	16	15	12.385689693302
23	17	16	14.210548868069
23	18	17	14.58056345564
23	19	18	15.169054675472
23	20	19	24.695709539627
23	21	20	37.369786237929
23	22	21	42.441334188406
23	23	22	52.227946061644
23	24	23	66.644391733061
23	25	24	71.912059262958
23	26	25	67.456604984849
23	27	26	67.886328737372
23	28	27	67.826684849039
23	29	28	68.193200898571
23	30	29	52.956647542426
23	31	30	62.824415664415
23	32	31	61.200588241813
23	33	32	55.22823108615
23	34	33	49.914740124309
23	35	34	40.595874161716
23	36	35	35.463211025489
23	37	36	29.644729995632
23	38	37	19.204599857236
23	39	38	27.092021787911
23	40	39	25.671632910514
23	41	40	14.225853808962
23	42	41	27.786978071819
23	43	42	40.901531002166
23	44	43	53.836263244969
23	45	44	54.192987875824
23	46	45	53.996522036541
23	47	46	53.452945687084
23	48	47	46.810389290336
23	49	48	46.660734250006
23	50	49	57.53918612096
23	51	50	57.920972154471
23	52	51	57.793483286952
23	53	52	57.270600409289
23	54	53	42.389874616012
23	55	54	49.198032172048
23	56	55	63.281701619854
23	57	56	67.908609607518
23	58	57	67.42838460885
23	59	58	68.158819783926
23	60	59	68.00046368144
23	61	60	74.513083201628
23	62	61	74.783858593541
23	63	62	75.184505523333
23	64	63	62.183208610147
23	65	64	53.762637196758
23	66	65	41.790801692151
23	67	66	49.034494261144
23	68	67	53.958183535814
23	69	68	45.838070993281
23	70	69	48.854601448583
23	71	70	60.579421178758
23	72	71	74.734522417834
23	73	72	74.67840993161
23	74	73	75.279335819336
23	75	74	74.879840408184
23	76	75	75.064022758428
23	77	76	74.6812804866
23	78	77	74.85921822238
23	79	78	74.814720735035
23	80	79	75.314558041829
23	81	80	75.16223980285
23	82	81	74.546485164796
23	83	82	75.166007316822
23	84	83	74.516931009234
23	85	84	50.201609211577
23	86	85	42.19432986805
23	87	86	35.765412982522
23	88	87	41.671316900109
23	89	88	51.151620770175
23	90	89	57.959412335437
23	91	90	61.909353103552
23	92	91	62.871492449374
23	93	92	65.838059677222
23	94	93	69.159434967874
23	95	94	75.335052144399
23	96	95	75.092256011965
23	97	96	74.600906427984
23	98	97	74.923135121131
23	99	98	74.882163333625
23	100	99	74.777086224698
23	101	100	75.040281401795
23	103	101	75.16420633333
23	104	102	75.01202116356
23	105	103	75.128673832269
23	154	104	75.272351930022
23	197	105	75.356382993294
24	3	2	12.607440242556
24	4	3	23.044844733651
24	5	4	35.6957955097
24	6	5	48.013564706548
24	7	6	61.037983420509
24	8	7	71.462510350208
24	9	8	74.392517769863
24	10	9	77.225145643446
24	11	10	66.741931821127
24	12	11	56.179736675352
24	13	12	47.710180168366
24	14	13	35.934577577321
24	15	14	30.915134634368
24	16	15	15.688147322879
24	17	16	18.933787984694
24	18	17	17.046795433411
24	19	18	17.262038086817
24	20	19	15.825446153885
24	21	20	28.372991297745
24	22	21	40.831697202476
24	23	22	48.208159697626
24	24	23	61.721326575975
24	25	24	76.313056960783
24	26	25	77.359545642356
24	27	26	76.972177831302
24	28	27	77.055013045095
24	29	28	77.64588069281
24	30	29	79.360823157761
24	31	30	79.052824658208
24	32	31	69.622555446951
24	33	32	56.334079304695
24	34	33	46.954864201622
24	35	34	35.892333308242
24	36	35	25.000123595138
24	37	36	28.654880918464
24	38	37	33.446995639442
24	39	38	33.848329021054
24	40	39	47.974576843198
24	41	40	61.090196102148
24	42	41	61.796735449869
24	43	42	61.649655196509
24	44	43	55.866468710622
24	45	44	51.209664262233
24	46	45	58.411573012129
24	47	46	65.660107366769
24	48	47	65.789479624369
24	49	48	53.69092278343
24	50	49	48.525321880669
24	51	50	58.256939345609
24	52	51	71.927719203883
24	53	52	77.377422497697
24	54	53	76.113275900609
24	55	54	76.991454239897
24	56	55	81.448273481018
24	57	56	85.82332505017
24	58	57	85.263448378411
24	59	58	77.430267186615
24	60	59	60.296198652556
24	61	60	50.097148930921
24	62	61	61.087688635698
24	63	62	50.649890164851
24	64	63	55.912030037164
24	65	64	67.644218412412
24	66	65	81.758797152222
24	67	66	85.282425270383
24	68	67	85.151695547546
24	69	68	85.57878183051
24	70	69	85.07782539715
24	71	70	85.096330816079
24	72	71	85.677540858639
24	73	72	85.758230897611
24	74	73	85.645825513582
24	75	74	85.365803245934
24	76	75	85.386806108863
24	77	76	69.127468666314
24	78	77	48.576374907081
24	79	78	41.497554321401
24	80	79	47.41222305933
24	81	80	59.075543781599
24	82	81	70.18965701601
24	83	82	69.947136547018
24	84	83	74.340160579154
24	85	84	78.982628774369
24	86	85	85.37453761023
24	87	86	85.040327531741
24	88	87	85.811943107112
24	89	88	85.485079325446
24	90	89	85.254653624389
24	91	90	85.735997256976
24	92	91	85.196960675567
24	93	92	85.104117494323
24	94	93	85.721753633059
24	95	94	85.846420672107
24	96	95	79.599008405331
24	97	96	63.905572170575
24	98	97	49.656651913932
24	99	98	36.685414415588
24	100	99	24.277960941736
24	101	100	19.21949226194
24	103	101	17.413280817677
24	104	102	17.080113133756
24	105	103	26.54107510441
24	154	104	39.767912031016
24	197	105	48.284241662535
25	3	2	12.740951286004
25	4	3	22.986635301122
25	5	4	34.189347408499
25	6	5	47.36643934827
25	7	6	59.951702063481
25	8	7	67.755201235333
25	9	8	70.243053558388
25	10	9	71.517923715096
25	11	10	69.76141147
25	12	11	58.841716072483
25	13	12	50.419448941531
25	14	13	41.045506292411
25	15	14	31.436880107799
25	16	15	23.242483614551
25	17	16	17.159045091855
25	18	17	16.732178603235
25	19	18	16.250622521023
25	20	19	14.950905735071
25	21	20	20.269609704196
25	22	21	33.427538753447
25	23	22	42.109003685049
25	24	23	45.918436134078
25	25	24	57.517207835831
25	26	25	70.134992615815
25	27	26	68.01212349625
25	28	27	67.312744324143
25	29	28	67.823951761798
25	30	29	67.373184146153
25	31	30	67.569592386369
25	32	31	67.374054125896
25	33	32	62.049286622026
25	34	33	55.629565227754
25	35	34	48.771761954759
25	36	35	43.016954625115
25	37	36	35.901020919182
25	38	37	29.792655705211
25	39	38	14.48322771295
25	40	39	26.310403231866
25	41	40	28.666665238287
25	42	41	11.453275474082
25	43	42	26.349772083423
25	44	43	39.332337048453
25	45	44	51.710075715872
25	46	45	53.552089005446
25	47	46	53.599361807567
25	48	47	50.94366649556
25	49	48	46.458576070914
25	50	49	44.193749955417
25	51	50	55.592309488567
25	52	51	57.709726176043
25	53	52	57.837790458282
25	54	53	52.872734713801
25	55	54	44.759230055266
25	56	55	45.57287926288
25	57	56	57.180052292062
25	58	57	68.153318915354
25	59	58	67.964139958402
25	60	59	67.758001234593
25	61	60	68.026226722031
25	62	61	70.766620497057
25	63	62	74.90462550593
25	64	63	75.006562949647
25	65	64	75.303627092018
25	66	65	54.087137706362
25	67	66	42.257102616673
25	68	67	46.674552947289
25	69	68	54.253756499354
25	70	69	44.393586306953
25	71	70	49.173370846266
25	72	71	59.602048446446
25	73	72	72.010394120075
25	74	73	74.747963965684
25	75	74	75.314197335345
25	76	75	74.800744685903
25	77	76	74.959124204702
25	78	77	75.188976429565
25	79	78	74.797292612702
25	80	79	74.599339080322
25	81	80	74.85196267676
25	82	81	74.981630962109
25	83	82	74.978961571748
25	84	83	74.601381572638
25	85	84	71.59767908648
25	86	85	57.895549885073
25	87	86	42.421100432549
25	88	87	36.255811015561
25	89	88	39.149889507373
25	90	89	49.982555403939
25	91	90	57.426087520765
25	92	91	61.375209521565
25	93	92	61.767660065896
25	94	93	65.738781338212
25	95	94	69.073887804631
25	96	95	75.275057690427
25	97	96	74.88138047154
25	98	97	75.298982821125
25	99	98	74.880052990768
25	100	99	74.484515371382
25	101	100	75.285533548495
25	103	101	75.118442456424
25	104	102	75.126573529047
25	105	103	75.020674459053
25	154	104	75.170485908421
25	197	105	75.224156728922
26	3	2	9.3210856399269
26	4	3	15.913321586369
26	5	4	27.317011585125
26	6	5	38.928545255233
26	7	6	50.796388971064
26	8	7	62.176941837601
26	9	8	68.160352141141
26	10	9	72.02588481263
26	11	10	66.747100550079
26	12	11	59.730167290669
26	13	12	52.813172582674
26	14	13	45.303197967554
26	15	14	38.452083640368
26	16	15	28.233083529018
26	17	16	22.779830613571
26	18	17	16.528102478124
26	19	18	16.681792836342
26	20	19	15.818956266924
26	21	20	15.090036908108
26	22	21	19.387668276712
26	23	22	30.569904070494
26	24	23	41.221445169168
26	25	24	42.625583440864
26	26	25	55.69550059818
26	27	26	67.515734959937
26	28	27	66.463554711144
26	29	28	66.810686263668
26	30	29	67.037130919884
26	31	30	66.362356747843
26	32	31	66.839395561319
26	33	32	68.492857257234
26	34	33	63.135698954525
26	35	34	56.776946486641
26	36	35	50.574303518539
26	37	36	43.609909965646
26	38	37	39.938172781222
26	39	38	41.278280877431
26	40	39	26.051550917114
26	41	40	27.555305999584
26	42	41	23.468619458923
26	43	42	26.433566762806
26	44	43	41.541301905942
26	45	44	37.463242753056
26	46	45	49.960296358909
26	47	46	52.711192772693
26	48	47	53.221244014606
26	49	48	44.038091912513
26	50	49	32.829452764154
26	51	50	38.22453419349
26	52	51	53.116418391599
26	53	52	56.573022683985
26	54	53	55.849998312061
26	55	54	54.133761136625
26	56	55	36.867784267859
26	57	56	37.867476902212
26	58	57	51.23515182136
26	59	58	64.303302281987
26	60	59	66.871160620072
26	61	60	66.43711724893
26	62	61	66.511202114977
26	63	62	66.788293526129
26	64	63	73.381682906634
26	65	64	73.159068911345
26	66	65	73.560885703153
26	67	66	73.749151741559
26	68	67	46.860197452448
26	69	68	13.657250432937
26	70	69	28.220212909271
26	71	70	42.133177493996
26	72	71	53.298150784352
26	73	72	43.778972447361
26	74	73	48.570304503952
26	75	74	58.567417492979
26	76	75	71.681832279922
26	77	76	73.982588797025
26	78	77	73.961538048284
26	79	78	73.36014290872
26	80	79	73.499063704986
26	81	80	73.299340132376
26	82	81	73.417046157163
26	83	82	73.586767237735
26	84	83	73.269940270469
26	85	84	73.198145426493
26	86	85	73.784020189484
26	87	86	73.65199869865
26	88	87	73.52420832171
26	89	88	61.428816939251
26	90	89	48.839843151126
26	91	90	36.19268367204
26	92	91	37.203849030407
26	93	92	49.383384851053
26	94	93	55.309125286263
26	95	94	60.855153460659
26	96	95	60.668154229781
26	97	96	64.201577085071
26	98	97	68.4427938266
26	99	98	70.458430846179
26	100	99	73.464863010388
26	101	100	73.938201811662
26	103	101	73.312784010204
26	104	102	73.812285483055
26	105	103	73.906646015923
26	154	104	73.267244773413
26	197	105	73.677941876053
27	3	2	9.0263467771679
27	4	3	15.432321972991
27	5	4	25.495480545911
27	6	5	37.051822188798
27	7	6	50.641695978374
27	8	7	60.77280595147
27	9	8	64.295842567404
27	10	9	67.927969648428
27	11	10	68.8855008645
27	12	11	60.938326248728
27	13	12	55.560073633351
27	14	13	47.890253149093
27	15	14	39.580832878976
27	16	15	33.105813393648
27	17	16	27.183444421445
27	18	17	17.586540855782
27	19	18	17.55636823852
27	20	19	17.138798263416
27	21	20	15.789645826672
27	22	21	17.19757102585
27	23	22	25.168243515413
27	24	23	38.664194840348
27	25	24	44.572264992031
27	26	25	57.237997417715
27	27	26	71.457592119421
27	28	27	71.554136031282
27	29	28	71.339109837029
27	30	29	71.597952925482
27	31	30	71.130219896834
27	32	31	71.45197745913
27	33	32	72.645158285522
27	34	33	72.626028587054
27	35	34	72.992803526125
27	36	35	72.889259446543
27	37	36	58.037152150695
27	38	37	27.743798375139
27	39	38	30.156283426586
27	40	39	28.292995402971
27	41	40	39.752020806456
27	42	41	55.178026592601
27	43	42	56.883352213139
27	44	43	56.435183705082
27	45	44	57.011526982482
27	46	45	49.747726214403
27	47	46	46.568355131771
27	48	47	58.849493701831
27	49	48	60.801841566665
27	50	49	60.383648484852
27	51	50	60.771734296856
27	52	51	44.791467524651
27	53	52	51.380416111657
27	54	53	64.9366806771
27	55	54	71.7962220625
27	56	55	71.466088220452
27	57	56	71.534738054916
27	58	57	71.227079344097
27	59	58	79.271075741827
27	60	59	79.202131765006
27	61	60	78.656793021919
27	62	61	64.695718948427
27	63	62	29.776591422051
27	64	63	18.801855904025
27	65	64	33.926944482255
27	66	65	46.478138847345
27	67	66	55.2198568738
27	68	67	48.94144517419
27	69	68	57.439907082002
27	70	69	69.615372072248
27	71	70	78.729553198788
27	72	71	79.208254038469
27	73	72	79.164283722961
27	74	73	79.156038402274
27	75	74	79.252935841141
27	76	75	78.896677089246
27	77	76	78.782386616032
27	78	77	78.773010112039
27	79	78	79.3601691846
27	80	79	79.347230154249
27	81	80	79.133572483804
27	82	81	79.058949751659
27	83	82	52.875105203819
27	84	83	40.573801648547
27	85	84	38.683346925827
27	86	85	48.477684089914
27	87	86	57.030535122189
27	88	87	64.721959713409
27	89	88	65.182677703914
27	90	89	69.123888702537
27	91	90	73.206138602472
27	92	91	76.876434625746
27	93	92	78.697808846269
27	94	93	78.684028051138
27	95	94	78.548546830026
27	96	95	79.125284503839
27	97	96	78.610728436146
27	98	97	78.754506494381
27	99	98	79.142461141125
27	100	99	79.013974273713
27	101	100	78.6799729438
27	103	101	78.668959696355
27	104	102	78.620819416918
27	105	103	76.380100695249
27	154	104	48.156273759711
27	197	105	29.076873918652
28	3	2	7.9286484623003
28	4	3	11.240674988876
28	5	4	19.039445504718
28	6	5	30.06571704407
28	7	6	42.357485371783
28	8	7	53.667695467022
28	9	8	60.990862734792
28	10	9	66.247066940632
28	11	10	65.431928549692
28	12	11	60.400757526678
28	13	12	56.959542141515
28	14	13	50.977084042536
28	15	14	45.08931623807
28	16	15	37.738655635459
28	17	16	32.752264483033
28	18	17	26.655965203335
28	19	18	19.76352993304
28	20	19	14.835721079624
28	21	20	18.222592399748
28	22	21	16.877735051904
28	23	22	18.88979936858
28	24	23	31.943082635151
28	25	24	39.826246772336
28	26	25	48.630192115683
28	27	26	59.889042749986
28	28	27	62.124423772264
28	29	28	64.660628025986
28	30	29	64.450817863417
28	31	30	65.206787444767
28	32	31	66.459834888098
28	33	32	67.155907956251
28	34	33	64.253027137371
28	35	34	59.510740641564
28	36	35	55.319347901304
28	37	36	49.209889643516
28	38	37	47.736500071902
28	39	38	38.612150592732
28	40	39	35.434639348507
28	41	40	28.759073482737
28	42	41	22.489417899082
28	43	42	29.244778840973
28	44	43	8.6955024555549
28	45	44	20.518239207091
28	46	45	33.342723908848
28	47	46	45.99762905763
28	48	47	60.381108695701
28	49	48	60.150108605564
28	50	49	51.044113880387
28	51	50	39.720897284672
28	52	51	38.150963407462
28	53	52	19.082895686447
28	54	53	32.092035371757
28	55	54	46.895846878614
28	56	55	60.63982480177
28	57	56	64.322023058552
28	58	57	54.042485657723
28	59	58	25.295753902262
28	60	59	31.918331113037
28	61	60	45.528921436168
28	62	61	59.01287742555
28	63	62	73.312466923612
28	64	63	76.173806224728
28	65	64	75.537981073849
28	66	65	77.377453052008
28	67	66	83.499590755196
28	68	67	83.712669313035
28	69	68	72.136439543963
28	70	69	57.791993382694
28	71	70	17.838046740279
28	72	71	26.172541747783
28	73	72	39.077946104044
28	74	73	52.431652383115
28	75	74	49.497615727008
28	76	75	55.483058514076
28	77	76	65.040354562972
28	78	77	78.831689342812
28	79	78	83.612133125507
28	80	79	83.64523344218
28	81	80	82.192291527536
28	82	81	79.63456664122
28	83	82	77.514277575797
28	84	83	76.82138428173
28	85	84	75.917819826902
28	86	85	74.795801587387
28	87	86	74.288273748703
28	88	87	74.375698742584
28	89	88	74.076945714031
28	90	89	67.875714365777
28	91	90	51.56665205419
28	92	91	31.038364026114
28	93	92	23.407520343971
28	94	93	36.073967379707
28	95	94	48.159195881805
28	96	95	61.342085466234
28	97	96	68.535177006558
28	98	97	73.145206985316
28	99	98	71.630358195096
28	100	99	74.893434120754
28	101	100	73.9172231319
28	103	101	33.9172231319
28	104	102	0
28	105	103	0
28	154	104	0
28	197	105	0
29	3	2	7.9436911082431
29	4	3	11.165263513657
29	5	4	18.85789543868
29	6	5	28.888552686888
29	7	6	40.947581479429
29	8	7	52.489721803308
29	9	8	58.482504391558
29	10	9	62.15372537899
29	11	10	65.260126983734
29	12	11	62.34488324007
29	13	12	56.940465793099
29	14	13	51.602390183128
29	15	14	45.646173831312
29	16	15	39.052166079234
29	17	16	32.392706130068
29	18	17	27.584973986723
29	19	18	18.026489713426
29	20	19	19.239029515936
29	21	20	18.833747718775
29	22	21	16.663714600389
29	23	22	17.277640637529
29	24	23	26.659274019801
29	25	24	39.573121361935
29	26	25	47.06595039486
29	27	26	58.702446594643
29	28	27	71.4910078987
29	29	28	71.344395185675
29	30	29	71.490245981021
29	31	30	70.645570036813
29	32	31	71.846016701313
29	33	32	71.917723142279
29	34	33	72.568573459146
29	35	34	73.088314271959
29	36	35	73.142236785273
29	37	36	65.058196847357
29	38	37	40.644320797345
29	39	38	20.776454434763
29	40	39	23.584231861277
29	41	40	21.733219836771
29	42	41	20.684869007446
29	43	42	19.237086218651
29	44	43	18.241290742138
29	45	44	31.500991366387
29	46	45	44.511940591645
29	47	46	57.454565354927
29	48	47	60.879971152968
29	49	48	55.560588605119
29	50	49	50.767840850351
29	51	50	36.024833292453
29	52	51	23.146851598666
29	53	52	36.684891874211
29	54	53	51.542195140858
29	55	54	64.414263029754
29	56	55	65.293357818481
29	57	56	42.846715340213
29	58	57	28.950645046923
29	59	58	42.400318287275
29	60	59	55.720054874485
29	61	60	69.620088535207
29	62	61	74.367034456791
29	63	62	71.42342407668
[...]
41	95	94	90.405886894873
41	96	95	156.64118335983
41	97	96	36.405533316646
41	98	97	51.760958562571
41	99	98	35.947821432054
41	100	99	35.777193705143
41	101	100	58.694451803064
41	103	101	40.866043550206
41	104	102	44.051310925947
41	105	103	41.818922165949
41	154	104	46.688935487901
41	197	105	45.034634705084
42	4	3	6.5922359464423
42	5	4	11.403689998756
42	6	5	11.611533670107
42	7	6	11.867843715832
42	8	7	11.380552866536
42	9	8	5.983410303541
42	10	9	3.8655326714888
42	11	10	-5.2787842625514
42	12	11	-7.0169332594098
42	13	12	-6.916994707995
42	14	13	-7.5099746151198
42	15	14	-6.8511143271866
42	16	15	-10.21900011135
42	17	16	-5.4532529154471
42	18	17	-6.2517281354464
42	19	18	0.15369035821726
42	20	19	-0.86283656941803
42	21	20	-0.72891935881598
42	22	21	4.2976313686046
42	23	22	11.182235793781
42	24	23	10.651541098674
42	25	24	1.4041382716969
42	26	25	13.069917157316
42	27	26	11.820234361757
42	28	27	-1.0521802487924
42	29	28	0.34713155252393
42	30	29	0.22644465621561
42	31	30	-0.67477417204064
42	32	31	0.47703881347553
42	33	32	1.6534616959153
42	34	33	-5.3571583027094
42	35	34	-6.3587524678838
42	36	35	-6.2026429681013
42	37	36	-6.9643935528936
42	38	37	-3.671737184424
42	39	38	1.3401080962096
42	40	39	-15.226729960317
42	41	40	1.5037550824694
42	42	41	-4.0866865406609
42	43	42	2.9649473038833
42	44	43	15.107735143136
42	45	44	-4.0780591528863
42	46	45	12.497053605854
42	47	46	2.7508964137836
42	48	47	0.51005124191288
42	49	48	-9.1831521020927
42	50	49	-11.208639148359
42	51	50	5.3950814293358
42	52	51	14.89188419811
42	53	52	3.4566042923853
42	54	53	-0.7230243719232
42	55	54	-1.7162371754364
42	56	55	-17.265976868766
42	57	56	0.9996926343534
42	58	57	13.367674919148
42	59	58	13.068150460627
42	60	59	2.5678583380845
42	61	60	-0.4340433711419
42	62	61	0.074084866046903
42	63	62	0.27709141115193
42	64	63	6.5933893805058
42	65	64	-0.22261399528942
42	66	65	0.40181679180823
42	67	66	0.18826603840571
42	68	67	-26.888954289111
42	69	68	-33.202947019512
42	70	69	14.562962476334
42	71	70	13.912964584725
42	72	71	11.164973290356
42	73	72	-9.5191783369912
42	74	73	4.7913320565909
42	75	74	9.9971129890274
42	76	75	13.114414786943
42	77	76	2.3007565171025
42	78	77	-0.021050748741246
42	79	78	-0.60139513956383
42	80	79	0.13892079626676
42	81	80	-0.19972357260995
42	82	81	0.11770602478646
42	83	82	0.16972108057234
42	84	83	-0.31682696726638
42	85	84	-0.071794843976392
42	86	85	0.58587476299145
42	87	86	-0.13202149083372
42	88	87	-0.12779037693981
42	89	88	-12.095391382459
42	90	89	-12.588973788125
42	91	90	-12.647159479086
42	92	91	1.0111653583668
42	93	92	12.179535820646
42	94	93	5.92574043521
42	95	94	5.5460281743957
42	96	95	-0.18699923087843
42	97	96	3.5334228552906
42	98	97	4.2412167415284
42	99	98	2.0156370195793
42	100	99	3.0064321642093
42	101	100	0.47333880127407
42	103	101	-0.62541780145838
42	104	102	0.49950147285126
42	105	103	0.094360532867711
42	154	104	-0.63940124250948
42	197	105	0.41069710263983
43	4	3	27.531879520616
43	5	4	79.385918104022
43	6	5	117.37451847221
43	7	6	160.95369332514
43	8	7	196.84844799025
43	9	8	131.93826050715
43	10	9	106.20079939026
43	11	10	0.973
43	12	11	0.973
43	13	12	0.973
43	14	13	0.973
43	15	14	0.973
43	16	15	0.973
43	17	16	0.973
43	18	17	0.973
43	19	18	2.9614583951386
43	20	19	0.973
43	21	20	0.973
43	22	21	22.798842749311
43	23	22	87.607196540421
43	24	23	115.38542151909
43	25	24	24.74521420901
43	26	25	195.18923063152
43	27	26	225.12815443054
43	28	27	14.584781453487
43	29	28	37.471538023619
43	30	29	35.832667430354
43	31	30	20.517839657074
43	32	31	39.603439119914
43	33	32	61.390472934371
43	34	33	0.973
43	35	34	0.973
43	36	35	0.973
43	37	36	0.973
43	38	37	0.973
43	39	38	22.930116138029
43	40	39	0.973
43	41	40	14.358254571968
43	42	41	0.973
43	43	42	22.979560710596
43	44	43	160.98670749674
43	45	44	0.973
43	46	45	165.50987512452
43	47	46	52.128002150636
43	48	47	24.145516987268
43	49	48	0.973
43	50	49	0.973
43	51	50	57.813451072347
43	52	51	208.14811074067
43	53	52	67.693102927303
43	54	53	10.165596356137
43	55	54	-4.0143109411287
43	56	55	0.973
43	57	56	17.076148825609
43	58	57	181.0656821546
43	59	58	231.29286900601
43	60	59	73.343512996796
43	61	60	24.455060448177
43	62	61	32.686499152606
43	63	62	36.313528263399
43	64	63	157.75752834571
43	65	64	36.886601153925
43	66	65	48.553740795231
43	67	66	45.068554996236
43	68	67	0.973
43	69	68	0.973
43	70	69	103.59121462436
43	71	70	151.32555888205
43	72	71	161.08006054373
43	73	72	0.973
43	74	73	70.122558910552
43	75	74	163.60043538565
43	76	75	265.14880949175
43	77	76	83.108679845185
43	78	77	41.678480403521
43	79	78	30.487815013101
43	80	79	43.795389873096
43	81	80	37.498668941369
43	82	81	43.290670266117
43	83	82	44.480241636647
43	84	83	35.387088776591
43	85	84	39.604946486285
43	86	85	52.194660184724
43	87	86	39.228065719558
43	88	87	39.109157745356
43	89	88	0.973
43	90	89	0.973
43	91	90	0.973
43	92	91	16.72798594853
43	93	92	159.57112060776
43	94	93	98.395411576677
43	95	94	106.20344748196
43	96	95	21.930412327403
43	97	96	83.324363299223
43	98	97	103.98734491952
43	99	98	71.047979352389
43	100	99	94.510796649836
43	101	100	50.451686053175
43	103	101	29.997364149943
43	104	102	50.706202573192
43	105	103	43.648603287198
43	154	104	29.687329398426
43	197	105	48.904227202635
44	4	3	6.405975195823
44	5	4	10.06315857292
44	6	5	11.556341642886
44	7	6	13.589873789577
44	8	7	10.131109973096
44	9	8	3.5230366159341
44	10	9	3.6321270810232
44	11	10	0.9575312160724
44	12	11	-7.9471746157716
44	13	12	-5.3782526153771
44	14	13	-7.6698204842579
44	15	14	-8.3094202701177
44	16	15	-6.4750194853279
44	17	16	-5.9223689722024
44	18	17	-9.5969035656638
44	19	18	-0.030172617261911
44	20	19	-0.417569975104
44	21	20	-1.349152436744
44	22	21	1.4079251991788
44	23	22	7.970672489563
44	24	23	13.495951324934
44	25	24	5.9080701516837
44	26	25	12.665732425684
44	27	26	14.219594701705
44	28	27	0.096543911861303
44	29	28	-0.21502619425301
44	30	29	0.25884308845271
44	31	30	-0.46773302864749
44	32	31	0.32175756229553
44	33	32	1.193180826392
44	34	33	-0.019129698467438
44	35	34	0.36677493907045
44	36	35	-0.10354407958221
44	37	36	-14.852107295848
44	38	37	-30.293353775556
44	39	38	2.4124850514466
44	40	39	-1.8632880236143
44	41	40	11.459025403485
44	42	41	15.426005786145
44	43	42	1.7053256205377
44	44	43	-0.44816850805655
44	45	44	0.57634327739942
44	46	45	-7.2638007680783
44	47	46	-3.1793710826319
44	48	47	12.28113857006
44	49	48	1.9523478648337
44	50	49	-0.41819308181294
44	51	50	0.38808581200428
44	52	51	-15.980266772206
44	53	52	6.5889485870069
44	54	53	13.556264565443
44	55	54	6.8595413854002
44	56	55	-0.33013384204823
44	57	56	0.068649834464296
44	58	57	-0.30765871081967
44	59	58	8.0439963977301
44	60	59	-0.068943976820435
44	61	60	-0.54533874308692
44	62	61	-13.961074073492
44	63	62	-34.919127526376
44	64	63	-10.974735518026
44	65	64	15.12508857823
44	66	65	12.55119436509
44	67	66	8.7417180264552
44	68	67	-6.2784116996098
44	69	68	8.4984619078115
44	70	69	12.175464990246
44	71	70	9.1141811265398
44	72	71	0.47870083968155
44	73	72	-0.043970315507622
44	74	73	-0.0082453206879904
44	75	74	0.096897438867018
44	76	75	-0.35625875189436
44	77	76	-0.11429047321434
44	78	77	-0.0093765039928257
44	79	78	0.58715907256118
44	80	79	-0.012939030351106
44	81	80	-0.21365767044482
44	82	81	-0.074622732144775
44	83	82	-26.183844547841
44	84	83	-12.301303555272
44	85	84	-1.8904547227202
44	86	85	9.7943371640872
44	87	86	8.5528510322748
44	88	87	7.69142459122
44	89	88	0.4607179905055
44	90	89	3.9412109986227
44	91	90	4.082249899935
44	92	91	3.6702960232738
44	93	92	1.8213742205232
44	94	93	-0.01378079513087
44	95	94	-0.13548122111243
44	96	95	0.57673767381348
44	97	96	-0.51455606769305
44	98	97	0.1437780582346
44	99	98	0.38795464674476
44	100	99	-0.12848686741199
44	101	100	-0.33400132991373
44	103	101	-0.01101324744522
44	104	102	-0.048140279436495
44	105	103	-2.2407187216693
44	154	104	-28.223826935538
44	197	105	-19.079399841059
45	4	3	26.019012414006
45	5	4	65.703036868939
45	6	5	110.78856348806
45	7	6	181.41027526888
45	8	7	173.15924525271
45	9	8	83.356083948571
45	10	9	92.801760918315
45	11	10	50.525869202389
45	12	11	0.973
45	13	12	0.973
45	14	13	0.973
45	15	14	0.973
45	16	15	0.973
45	17	16	0.973
45	18	17	0.973
45	19	18	2.3291489366017
45	20	19	0.973
45	21	20	0.973
45	22	21	8.2447841950861
45	23	22	52.143360262577
45	24	23	134.07088070493
45	25	24	74.904412831476
45	26	25	195.90991537569
45	27	26	283.14355526952
45	28	27	40.070256042437
45	29	28	34.393947959905
45	30	29	42.936090401123
45	31	30	29.768937437367
45	32	31	43.796363676967
45	33	32	60.919441669762
45	34	33	39.666130410284
45	35	34	47.009535844933
45	36	35	38.580944632847
45	37	36	0.973
45	38	37	0.973
45	39	38	22.631284466967
45	40	39	0.973
45	41	40	118.61078680721
45	42	41	224.42460464364
45	43	42	44.235275723126
45	44	43	14.341322057667
45	45	44	28.89736785975
45	46	45	0.973
45	47	46	0.973
45	48	47	196.95680396471
45	49	48	53.41587776048
45	50	49	18.276223131036
45	51	50	30.459265514048
45	52	51	0.973
45	53	52	97.707852599547
45	54	53	241.69004326082
45	55	54	157.45163355241
45	56	55	32.590368691061
45	57	56	39.560461563968
45	58	57	32.646482414097
45	59	58	204.62604890129
45	60	59	49.511622916752
45	61	60	39.52215753655
45	62	61	0.973
45	63	62	0.973
45	64	63	0.973
45	65	64	130.02281851837
45	66	65	153.21604458517
45	67	66	135.66305105993
45	68	67	0.973
45	69	68	139.03234548278
45	70	69	239.9062387021
45	71	70	222.91898964549
45	72	71	59.97655628342
45	73	72	49.921121973492
45	74	73	50.58800414669
45	75	74	52.769171695339
45	76	75	43.509952389464
45	77	76	47.911520177494
45	78	77	49.886917358607
45	79	78	62.340409182017
45	80	79	50.839888272987
45	81	80	46.630507031665
45	82	81	49.150428165964
45	83	82	0.973
45	84	83	0.973
45	85	84	0.973
45	86	85	128.40142092526
45	87	86	138.55003876801
45	88	87	149.24835132727
45	89	88	37.075892325115
45	90	89	100.61165933135
45	91	90	112.90554369637
45	92	91	114.79020110059
45	93	92	84.476593542903
45	94	93	49.646459722642
45	95	94	47.104501792547
45	96	95	61.688353812299
45	97	96	40.030236245012
45	98	97	52.761102126715
45	99	98	58.120657947499
45	100	99	48.045504864586
45	101	100	43.567338904042
45	103	101	49.672404054064
45	104	102	48.884223711522
45	105	103	4.7119147299384
45	154	104	0.973
45	197	105	0.973
46	4	3	3.3120265265759
46	5	4	7.7987705158419
46	6	5	11.026271539352
46	7	6	12.291768327713
46	8	7	11.310210095239
46	9	8	7.3231672677699
46	10	9	5.25620420584
46	11	10	-0.81513839094046
46	12	11	-5.0311710230134
46	13	12	-3.4412153851632
46	14	13	-5.9824580989787
46	15	14	-5.8877678044663
46	16	15	-7.3506606026108
46	17	16	-4.9863911524264
46	18	17	-6.0962992796975
46	19	18	-6.892435270295
46	20	19	-4.927808853416
46	21	20	3.3868713201237
46	22	21	-1.3448573478434
46	23	22	2.0120643166757
46	24	23	13.053283266571
46	25	24	7.883164137185
46	26	25	8.8039453433475
46	27	26	11.258850634303
46	28	27	2.2353810222777
46	29	28	2.536204253722
46	30	29	-0.20981016256871
46	31	30	0.75596958134926
46	32	31	1.2530474433315
46	33	32	0.69607306815317
46	34	33	-2.90288081888
46	35	34	-4.7422864958075
46	36	35	-4.1913927402597
46	37	36	-6.1094582577879
46	38	37	-1.4733895716141
46	39	38	-9.1243494791699
46	40	39	-3.1775112442251
46	41	40	-6.6755658657705
46	42	41	-6.2696555836547
46	43	42	6.7553609418916
46	44	43	-20.549276385419
46	45	44	11.822736751536
46	46	45	12.824484701757
46	47	46	12.654905148782
46	48	47	14.383479638072
46	49	48	-0.23100009013771
46	50	49	-9.1059947251769
46	51	50	-11.323216595715
46	52	51	-1.5699338772101
46	53	52	-19.068067721014
46	54	53	13.00913968531
46	55	54	14.803811506857
46	56	55	13.743977923156
46	57	56	3.6821982567824
46	58	57	-10.279537400829
46	59	58	-28.746731755461
46	60	59	6.6225772107752
46	61	60	13.610590323131
46	62	61	13.483955989382
46	63	62	14.299589498062
46	64	63	2.8613393011166
46	65	64	-0.6358251508791
46	66	65	1.8394719781587
46	67	66	6.1221377031879
46	68	67	0.21307855783961
46	69	68	-11.576229769072
46	70	69	-14.344446161269
46	71	70	-39.953946642415
46	72	71	8.3344950075037
46	73	72	12.905404356262
46	74	73	13.353706279071
46	75	74	-2.9340366561077
46	76	75	5.9854427870678
46	77	76	9.5572960488964
46	78	77	13.79133477984
46	79	78	4.780443782695
46	80	79	0.033100316673526
46	81	80	-1.4529419146443
46	82	81	-2.5577248863157
46	83	82	-2.1202890654237
46	84	83	-0.69289329406637
46	85	84	-0.90356445482824
46	86	85	-1.1220182395153
46	87	86	-0.50752783868367
46	88	87	0.087424993880774
46	89	88	-0.29875302855319
46	90	89	-6.201231348254
46	91	90	-16.309062311587
46	92	91	-20.528288028076
46	93	92	-7.6308436821424
46	94	93	12.666447035735
46	95	94	12.085228502098
46	96	95	13.182889584429
46	97	96	7.1930915403238
46	98	97	4.6100299787581
46	99	98	-1.5148487902195
46	100	99	3.263075925658
46	101	100	-0.97621098885379
46	103	101	-40
46	104	102	-33.9172231319
46	105	103	0
46	154	104	0
46	197	105	0
47	4	3	10.755743715531
47	5	4	38.450752329478
47	6	5	84.965602420411
47	7	6	135.65001052315
47	8	7	164.26367292732
47	9	8	132.65278440725
47	10	9	115.08185086172
47	11	10	17.291105896005
47	12	11	0.973
47	13	12	0.973
47	14	13	0.973
47	15	14	0.973
47	16	15	0.973
47	17	16	0.973
47	18	17	0.973
47	19	18	0.973
47	20	19	0.973
47	21	20	17.42198246066
47	22	21	0.973
47	23	22	11.803714707105
47	24	23	106.14974925507
47	25	24	84.530353740952
47	26	25	117.26113411184
47	27	26	186.34429960008
47	28	27	59.72426605124
47	29	28	68.725685221093
47	30	29	25.692129234427
47	31	30	41.747962172336
47	32	31	51.503409104555
47	33	32	43.59380757702
47	34	33	-16.236553709109
47	35	34	0.973
47	36	35	0.973
47	37	36	0.973
47	38	37	-3.4887601156813
47	39	38	0.973
47	40	39	0.973
47	41	40	0.973
47	42	41	0.973
47	43	42	52.443058465134
47	44	43	0.973
47	45	44	61.359981129092
47	46	45	109.19516934905
47	47	46	152.60437349353
47	48	47	233.66546991576
47	49	48	20.766998445683
47	50	49	0.973
47	51	50	0.973
47	52	51	0.973
47	53	52	0.973
47	54	53	106.32641944032
47	55	54	180.21087121471
47	56	55	225.4914942463
47	57	56	85.876843215181
47	58	57	0.973
47	59	58	0.973
47	60	59	56.596662437917
47	61	60	161.36646969135
47	62	61	214.71210605455
47	63	62	293.69649839371
47	64	63	98.143735597251
47	65	64	32.996001066371
47	66	65	81.942361425321
47	67	66	182.11686569571
47	68	67	63.640489634999
47	69	68	0.973
47	70	69	0.973
47	71	70	0.973
47	72	71	56.599269688005
47	73	72	130.04818854003
47	74	73	185.69248504589
47	75	74	0.973
47	76	75	99.598424604658
47	77	76	179.47236882411
47	78	77	312.18254610639
47	79	78	155.47026094072
47	80	79	59.874818806176
47	81	80	27.58851354058
47	82	81	2.5166760473464
47	83	82	8.2649894022419
47	84	83	33.868865585132
47	85	84	28.661188779435
47	86	85	23.147768643308
47	87	86	33.480484927554
47	88	87	44.272136184827
47	89	88	36.901003865176
47	90	89	0.973
47	91	90	0.973
47	92	91	0.973
47	93	92	0.973
47	94	93	117.30674695196
47	95	94	154.01714011013
47	96	95	220.28063343958
47	97	96	152.96237546189
47	98	97	122.05594183439
47	99	98	12.366638863178
47	100	99	102.42560413679
47	101	100	24.594152265094
47	103	101	0.973
47	104	102	0.973
47	105	103	0.973
47	154	104	0.973
47	197	105	0.973
48	4	3	3.2215724054134
48	5	4	7.6926319250233
48	6	5	10.030657248208
48	7	6	12.059028792541
48	8	7	11.542140323879
48	9	8	5.9927825882505
48	10	9	3.6712209874314
48	11	10	3.1064016047439
48	12	11	-2.9152437436634
48	13	12	-5.4044174469715
48	14	13	-5.3380756099706
48	15	14	-5.9562163518163
48	16	15	-6.5940077520784
48	17	16	-6.6594599491659
48	18	17	-4.8077321433444
48	19	18	-9.5584842732977
48	20	19	1.21253980251
48	21	20	-0.40528179716095
48	22	21	-2.1700331183854
48	23	22	0.61392603713973
48	24	23	9.381633382272
48	25	24	12.913847342133
48	26	25	7.492829032925
48	27	26	11.636496199784
48	28	27	12.788561304057
48	29	28	-0.14661271302556
48	30	29	0.14585079534642
48	31	30	-0.84467594420865
48	32	31	1.2004466645002
48	33	32	0.07170644096577
48	34	33	0.65085031686728
48	35	34	0.51974081281341
48	36	35	0.053922513314077
48	37	36	-8.0840399379164
48	38	37	-24.413876050012
48	39	38	-19.867866362582
48	40	39	2.8077774265141
48	41	40	-1.8510120245051
48	42	41	-1.0483508293254
48	43	42	-1.447782788795
48	44	43	-0.99579547651355
48	45	44	13.259700624249
48	46	45	13.010949225258
48	47	46	12.942624763283
48	48	47	3.4254057980403
48	49	48	-5.3193825478484
48	50	49	-4.7927477547682
48	51	50	-14.743007557898
48	52	51	-12.877981693788
48	53	52	13.538040275546
48	54	53	14.857303266646
48	55	54	12.872067888896
48	56	55	0.87909478872685
48	57	56	-22.446642478267
48	58	57	-13.896070293291
48	59	58	13.449673240352
48	60	59	13.31973658721
48	61	60	13.900033660722
48	62	61	4.7469459215847
48	63	62	-2.9436103801115
48	64	63	3.7831918821243
48	65	64	7.8655349475348
48	66	65	1.2516352860286
48	67	66	-1.4988728940303
48	68	67	-12.137402548518
48	69	68	-19.222991325995
48	70	69	-0.15948417207692
48	71	70	9.0482166721579
48	72	71	-8.9392759884456
48	73	72	4.1513507056972
48	74	73	12.081364630815
48	75	74	11.824766219803
48	76	75	5.0341360804838
48	77	76	-2.2366181702332
48	78	77	-2.5450932344488
48	79	78	-0.7564961191982
48	80	79	-1.1930174693799
48	81	80	-0.99000011292422
48	82	81	-0.9541387995171
48	83	82	0.025964769111923
48	84	83	-0.65286804545151
48	85	84	-0.39883474316545
48	86	85	1.8424909000146
48	87	86	-14.165603720007
48	88	87	-26.658111893308
48	89	88	1.5800788215523
48	90	89	6.5443359054603
48	91	90	8.9864320121143
48	92	91	3.9975145501833
48	93	92	2.2071023632815
48	94	93	3.7406546067167
48	95	94	2.8198838626902
48	96	95	5.0449799665613
48	97	96	1.3656555165521
48	98	97	0.93993978922944
48	99	98	0.50865554455879
48	100	99	0.60972056863744
48	101	100	-0.00089464438920572
48	103	101	0.43369019100963
48	104	102	-0.092213034523425
48	105	103	-0.1115783557522
48	154	104	-0.0056140715124684
48	197	105	0.57159091803449
49	4	3	10.445893013691
49	5	4	37.600331127448
49	6	5	74.565588808733
49	7	6	128.43069071894
49	8	7	163.01010729761
49	9	8	106.87298659299
49	10	9	81.280336205232
49	11	10	78.790025612806
49	12	11	-17.298430813755
49	13	12	0.973
49	14	13	0.973
49	15	14	0.973
49	16	15	0.973
49	17	16	0.973
49	18	17	0.973
49	19	18	0.973
49	20	19	8.3180031199083
49	21	20	0.796131908832
49	22	21	0.973
49	23	22	4.976266518598
49	24	23	64.422280114104
49	25	24	131.90492342016
49	26	25	98.002310895525
49	27	26	187.25376175266
49	28	27	258.65123889696
49	29	28	35.577685504161
49	30	29	40.824628006652
49	31	30	22.707572540389
49	32	31	59.620934647685
49	33	32	40.184301293846
49	34	33	51.297002041898
49	35	34	49.858182960315
49	36	35	41.736317001302
49	37	36	0.973
49	38	37	0.973
49	39	38	0.973
49	40	39	19.418367738731
49	41	40	0.973
49	42	41	0.973
49	43	42	0.973
49	44	43	0.973
49	45	44	106.18144846006
49	46	45	150.97770794747
49	47	46	200.61280542456
49	48	47	75.149371050975
49	49	48	0.973
49	50	49	0.973
49	51	50	0.973
49	52	51	0.973
49	53	52	127.13102184871
49	54	53	200.79805173641
49	55	54	228.7311037616
49	56	55	43.807518625932
49	57	56	0.973
49	58	57	0.973
49	59	58	147.63230500563
49	60	59	198.64358393122
49	61	60	268.86221500041
49	62	61	127.76831000515
49	63	62	-12.45453759695
49	64	63	112.60286280351
49	65	64	215.54737747264
49	66	65	86.002483932666
49	67	66	27.674238374159
49	68	67	0.973
49	69	68	0.973
49	70	69	14.088358544551
49	71	70	155.93731595794
49	72	71	0.973
49	73	72	75.230579692339
49	74	73	229.93044944616
49	75	74	277.78567611438
49	76	75	163.45897092367
49	77	76	12.171253579029
49	78	77	2.8657760050098
49	79	78	36.012407612079
49	80	79	25.959610777206
49	81	80	28.314778417052
49	82	81	27.61204174391
49	83	82	45.566324692775
49	84	83	32.195391206299
49	85	84	36.196779870312
49	86	85	80.438404404242
49	87	86	0.973
49	88	87	0.973
49	89	88	21.991464993735
49	90	89	80.384823585189
49	91	90	132.00640900609
49	92	91	75.75080231578
49	93	92	54.526265373097
49	94	93	83.795571204573
49	95	94	75.125196744955
49	96	95	123.24380943728
49	97	96	62.959979025733
49	98	97	57.192194400429
49	99	98	50.443811396147
49	100	99	53.276361765766
49	101	100	42.360488187451
49	103	101	50.859670946549
49	104	102	41.260090165769
49	105	103	40.738561321536
49	154	104	42.629598240042
49	197	105	53.96766466275

